
*** ChampSim Multicore Out-of-Order Simulator ***

Warmup Instructions: 25000000
Simulation Instructions: 25000000
Number of CPUs: 1
Off-chip DRAM Size: 4 GiB Channels: 1 Width: 64-bit Data Rate: 3200 MT/s

VirtualMemory physical capacity: 8588881920 num_ppages: 2096895
VirtualMemory page size: 4096 log2_page_size: 12

CPU 0 runs ../TRACES/602.gcc_s-1850B.champsimtrace.xz
CPU 0 Bimodal branch predictor
Basic BTB sets: 1024 ways: 8 indirect buffer size: 4096 RAS size: 64
Stream Plus Stride Prefetcher with degree = 4 and distance = 16
WARNING: The extended signature CACHE::prefetch_line(ip, base_addr, pf_addr, fill_this_level, prefetch_metadata) is deprecated.
WARNING: Use CACHE::prefetch_line(pf_addr, fill_this_level, prefetch_metadata) instead.
Heartbeat CPU 0 instructions: 10000000 cycles: 2500075 heartbeat IPC: 3.99988 cumulative IPC: 3.99988 (Simulation time: 0 hr 0 min 14 sec) 
Heartbeat CPU 0 instructions: 20000000 cycles: 5000075 heartbeat IPC: 4 cumulative IPC: 3.99994 (Simulation time: 0 hr 0 min 27 sec) 

Warmup complete CPU 0 instructions: 25000004 cycles: 6250076 (Simulation time: 0 hr 0 min 34 sec) 

Heartbeat CPU 0 instructions: 30000000 cycles: 19402180 heartbeat IPC: 0.694343 cumulative IPC: 0.380167 (Simulation time: 0 hr 0 min 46 sec) 
Heartbeat CPU 0 instructions: 40000002 cycles: 45782437 heartbeat IPC: 0.379071 cumulative IPC: 0.379436 (Simulation time: 0 hr 1 min 11 sec) 
Heartbeat CPU 0 instructions: 50000003 cycles: 72179727 heartbeat IPC: 0.378827 cumulative IPC: 0.379192 (Simulation time: 0 hr 1 min 36 sec) 
Finished CPU 0 instructions: 25000004 cycles: 65929652 cumulative IPC: 0.379192 (Simulation time: 0 hr 1 min 36 sec) 

ChampSim completed all CPUs

Region of Interest Statistics

CPU 0 cumulative IPC: 0.379192 instructions: 25000004 cycles: 65929652
cpu0_DTLB TOTAL     ACCESS:    4748367  HIT:    4740241  MISS:       8126
cpu0_DTLB LOAD      ACCESS:    3938777  HIT:    3930654  MISS:       8123
cpu0_DTLB RFO       ACCESS:     809590  HIT:     809587  MISS:          3
cpu0_DTLB PREFETCH  ACCESS:          0  HIT:          0  MISS:          0
cpu0_DTLB WRITEBACK ACCESS:          0  HIT:          0  MISS:          0
cpu0_DTLB TRANSLATION ACCESS:          0  HIT:          0  MISS:          0
cpu0_DTLB PREFETCH  REQUESTED:          0  ISSUED:          0  USEFUL:          0  USELESS:          0
cpu0_DTLB AVERAGE MISS LATENCY: 208.25 cycles
cpu0_ITLB TOTAL     ACCESS:    2857034  HIT:    2857034  MISS:          0
cpu0_ITLB LOAD      ACCESS:    2857034  HIT:    2857034  MISS:          0
cpu0_ITLB RFO       ACCESS:          0  HIT:          0  MISS:          0
cpu0_ITLB PREFETCH  ACCESS:          0  HIT:          0  MISS:          0
cpu0_ITLB WRITEBACK ACCESS:          0  HIT:          0  MISS:          0
cpu0_ITLB TRANSLATION ACCESS:          0  HIT:          0  MISS:          0
cpu0_ITLB PREFETCH  REQUESTED:          0  ISSUED:          0  USEFUL:          0  USELESS:          0
cpu0_ITLB AVERAGE MISS LATENCY: -nan cycles
cpu0_STLB TOTAL     ACCESS:       8126  HIT:        392  MISS:       7734
cpu0_STLB LOAD      ACCESS:       8123  HIT:        392  MISS:       7731
cpu0_STLB RFO       ACCESS:          3  HIT:          0  MISS:          3
cpu0_STLB PREFETCH  ACCESS:          0  HIT:          0  MISS:          0
cpu0_STLB WRITEBACK ACCESS:          0  HIT:          0  MISS:          0
cpu0_STLB TRANSLATION ACCESS:          0  HIT:          0  MISS:          0
cpu0_STLB PREFETCH  REQUESTED:          0  ISSUED:          0  USEFUL:          0  USELESS:          0
cpu0_STLB AVERAGE MISS LATENCY: 209.349 cycles
cpu0_L1D TOTAL     ACCESS:    5546396  HIT:    4943698  MISS:     602698
cpu0_L1D LOAD      ACCESS:    3381040  HIT:    2779259  MISS:     601781
cpu0_L1D RFO       ACCESS:    2157622  HIT:    2157450  MISS:        172
cpu0_L1D PREFETCH  ACCESS:          0  HIT:          0  MISS:          0
cpu0_L1D WRITEBACK ACCESS:          0  HIT:          0  MISS:          0
cpu0_L1D TRANSLATION ACCESS:       7734  HIT:       6989  MISS:        745
cpu0_L1D PREFETCH  REQUESTED:          0  ISSUED:          0  USEFUL:          0  USELESS:          0
cpu0_L1D AVERAGE MISS LATENCY: 65.8852 cycles
cpu0_L2C TOTAL     ACCESS:     975473  HIT:     479555  MISS:     495918
cpu0_L2C LOAD      ACCESS:     601781  HIT:     296771  MISS:     305010
cpu0_L2C RFO       ACCESS:        172  HIT:          2  MISS:        170
cpu0_L2C PREFETCH  ACCESS:     371200  HIT:     180610  MISS:     190590
cpu0_L2C WRITEBACK ACCESS:       1575  HIT:       1575  MISS:          0
cpu0_L2C TRANSLATION ACCESS:        745  HIT:        597  MISS:        148
cpu0_L2C PREFETCH  REQUESTED:     411821  ISSUED:     411026  USEFUL:     162687  USELESS:      27988
cpu0_L2C AVERAGE MISS LATENCY: 116.008 cycles
LLC TOTAL     ACCESS:     496536  HIT:       1442  MISS:     495094
LLC LOAD      ACCESS:     305010  HIT:        704  MISS:     304306
LLC RFO       ACCESS:        170  HIT:          0  MISS:        170
LLC PREFETCH  ACCESS:     190590  HIT:         49  MISS:     190541
LLC WRITEBACK ACCESS:        618  HIT:        618  MISS:          0
LLC TRANSLATION ACCESS:        148  HIT:         71  MISS:         77
LLC PREFETCH  REQUESTED:          0  ISSUED:          0  USEFUL:          0  USELESS:          0
LLC AVERAGE MISS LATENCY: 95.1658 cycles

DRAM Statistics
 CHANNEL 0
 RQ ROW_BUFFER_HIT:     409715  ROW_BUFFER_MISS:      85379
 DBUS AVG_CONGESTED_CYCLE:    3.95791
 WQ ROW_BUFFER_HIT:        337  ROW_BUFFER_MISS:        277  FULL:          0


CPU 0 Branch Prediction Accuracy: 92.3646% MPKI: 19.576 Average ROB Occupancy at Mispredict: 33.4764
Branch type MPKI
BRANCH_DIRECT_JUMP: 0
BRANCH_INDIRECT: 0
BRANCH_CONDITIONAL: 19.576
BRANCH_DIRECT_CALL: 0
BRANCH_INDIRECT_CALL: 0
BRANCH_RETURN: 0

