
*** ChampSim Multicore Out-of-Order Simulator ***

Warmup Instructions: 25000000
Simulation Instructions: 25000000
Number of CPUs: 1
Off-chip DRAM Size: 4 GiB Channels: 1 Width: 64-bit Data Rate: 3200 MT/s

VirtualMemory physical capacity: 8588881920 num_ppages: 2096895
VirtualMemory page size: 4096 log2_page_size: 12

CPU 0 runs /home/abhishekjagushte/Labs/COA/ass2/traces/602.gcc_s-1850B.champsimtrace.xz
CPU 0 Bimodal branch predictor
Basic BTB sets: 1024 ways: 8 indirect buffer size: 4096 RAS size: 64
cpu0_L2C IP-based stride prefetcher
WARNING: The extended signature CACHE::prefetch_line(ip, base_addr, pf_addr, fill_this_level, prefetch_metadata) is deprecated.
WARNING: Use CACHE::prefetch_line(pf_addr, fill_this_level, prefetch_metadata) instead.
Heartbeat CPU 0 instructions: 10000000 cycles: 2500075 heartbeat IPC: 3.99988 cumulative IPC: 3.99988 (Simulation time: 0 hr 0 min 11 sec) 
Heartbeat CPU 0 instructions: 20000000 cycles: 5000075 heartbeat IPC: 4 cumulative IPC: 3.99994 (Simulation time: 0 hr 0 min 23 sec) 

Warmup complete CPU 0 instructions: 25000004 cycles: 6250076 (Simulation time: 0 hr 0 min 28 sec) 

Heartbeat CPU 0 instructions: 30000000 cycles: 15692929 heartbeat IPC: 0.935204 cumulative IPC: 0.529501 (Simulation time: 0 hr 0 min 36 sec) 
Heartbeat CPU 0 instructions: 40000002 cycles: 34699896 heartbeat IPC: 0.526123 cumulative IPC: 0.527244 (Simulation time: 0 hr 0 min 50 sec) 
Heartbeat CPU 0 instructions: 50000003 cycles: 53755509 heartbeat IPC: 0.52478 cumulative IPC: 0.526256 (Simulation time: 0 hr 1 min 4 sec) 
Finished CPU 0 instructions: 25000004 cycles: 47505434 cumulative IPC: 0.526256 (Simulation time: 0 hr 1 min 4 sec) 

ChampSim completed all CPUs

Region of Interest Statistics

CPU 0 cumulative IPC: 0.526256 instructions: 25000004 cycles: 47505434
cpu0_DTLB TOTAL     ACCESS:    4748344  HIT:    4740218  MISS:       8126
cpu0_DTLB LOAD      ACCESS:    3938754  HIT:    3930631  MISS:       8123
cpu0_DTLB RFO       ACCESS:     809590  HIT:     809587  MISS:          3
cpu0_DTLB PREFETCH  ACCESS:          0  HIT:          0  MISS:          0
cpu0_DTLB WRITEBACK ACCESS:          0  HIT:          0  MISS:          0
cpu0_DTLB TRANSLATION ACCESS:          0  HIT:          0  MISS:          0
cpu0_DTLB PREFETCH  REQUESTED:          0  ISSUED:          0  USEFUL:          0  USELESS:          0
cpu0_DTLB AVERAGE MISS LATENCY: 208.071 cycles
cpu0_ITLB TOTAL     ACCESS:    2857034  HIT:    2857034  MISS:          0
cpu0_ITLB LOAD      ACCESS:    2857034  HIT:    2857034  MISS:          0
cpu0_ITLB RFO       ACCESS:          0  HIT:          0  MISS:          0
cpu0_ITLB PREFETCH  ACCESS:          0  HIT:          0  MISS:          0
cpu0_ITLB WRITEBACK ACCESS:          0  HIT:          0  MISS:          0
cpu0_ITLB TRANSLATION ACCESS:          0  HIT:          0  MISS:          0
cpu0_ITLB PREFETCH  REQUESTED:          0  ISSUED:          0  USEFUL:          0  USELESS:          0
cpu0_ITLB AVERAGE MISS LATENCY: -nan cycles
cpu0_STLB TOTAL     ACCESS:       8126  HIT:        392  MISS:       7734
cpu0_STLB LOAD      ACCESS:       8123  HIT:        392  MISS:       7731
cpu0_STLB RFO       ACCESS:          3  HIT:          0  MISS:          3
cpu0_STLB PREFETCH  ACCESS:          0  HIT:          0  MISS:          0
cpu0_STLB WRITEBACK ACCESS:          0  HIT:          0  MISS:          0
cpu0_STLB TRANSLATION ACCESS:          0  HIT:          0  MISS:          0
cpu0_STLB PREFETCH  REQUESTED:          0  ISSUED:          0  USEFUL:          0  USELESS:          0
cpu0_STLB AVERAGE MISS LATENCY: 209.161 cycles
cpu0_L1D TOTAL     ACCESS:    5549269  HIT:    4946573  MISS:     602696
cpu0_L1D LOAD      ACCESS:    3383913  HIT:    2782134  MISS:     601779
cpu0_L1D RFO       ACCESS:    2157622  HIT:    2157450  MISS:        172
cpu0_L1D PREFETCH  ACCESS:          0  HIT:          0  MISS:          0
cpu0_L1D WRITEBACK ACCESS:          0  HIT:          0  MISS:          0
cpu0_L1D TRANSLATION ACCESS:       7734  HIT:       6989  MISS:        745
cpu0_L1D PREFETCH  REQUESTED:          0  ISSUED:          0  USEFUL:          0  USELESS:          0
cpu0_L1D AVERAGE MISS LATENCY: 35.1065 cycles
cpu0_L2C TOTAL     ACCESS:    1348929  HIT:     902086  MISS:     446843
cpu0_L2C LOAD      ACCESS:     601779  HIT:     484819  MISS:     116960
cpu0_L2C RFO       ACCESS:        172  HIT:         44  MISS:        128
cpu0_L2C PREFETCH  ACCESS:     744668  HIT:     415045  MISS:     329623
cpu0_L2C WRITEBACK ACCESS:       1565  HIT:       1565  MISS:          0
cpu0_L2C TRANSLATION ACCESS:        745  HIT:        613  MISS:        132
cpu0_L2C PREFETCH  REQUESTED:    1077052  ISSUED:    1074736  USEFUL:     342077  USELESS:       1070
cpu0_L2C AVERAGE MISS LATENCY: 106.27 cycles
LLC TOTAL     ACCESS:     447461  HIT:       1270  MISS:     446191
LLC LOAD      ACCESS:     103435  HIT:        403  MISS:     103032
LLC RFO       ACCESS:        122  HIT:          0  MISS:        122
LLC PREFETCH  ACCESS:     343154  HIT:        186  MISS:     342968
LLC WRITEBACK ACCESS:        618  HIT:        618  MISS:          0
LLC TRANSLATION ACCESS:        132  HIT:         63  MISS:         69
LLC PREFETCH  REQUESTED:          0  ISSUED:          0  USEFUL:          0  USELESS:          0
LLC AVERAGE MISS LATENCY: 88.3058 cycles

DRAM Statistics
 CHANNEL 0
 RQ ROW_BUFFER_HIT:     364485  ROW_BUFFER_MISS:      81706
 DBUS AVG_CONGESTED_CYCLE:    3.96454
 WQ ROW_BUFFER_HIT:        246  ROW_BUFFER_MISS:        372  FULL:          0


CPU 0 Branch Prediction Accuracy: 92.3646% MPKI: 19.576 Average ROB Occupancy at Mispredict: 33.4565
Branch type MPKI
BRANCH_DIRECT_JUMP: 0
BRANCH_INDIRECT: 0
BRANCH_CONDITIONAL: 19.576
BRANCH_DIRECT_CALL: 0
BRANCH_INDIRECT_CALL: 0
BRANCH_RETURN: 0

