*** ChampSim Multicore Out-of-Order Simulator ***

Warmup Instructions: 25000000
Simulation Instructions: 25000000
Number of CPUs: 1
Off-chip DRAM Size: 4 GiB Channels: 1 Width: 64-bit Data Rate: 3200 MT/s

VirtualMemory physical capacity: 8588881920 num_ppages: 2096895
VirtualMemory page size: 4096 log2_page_size: 12

CPU 0 runs ../TRACES/602.gcc_s-1850B.champsimtrace.xz
CPU 0 Bimodal branch predictor
Basic BTB sets: 1024 ways: 8 indirect buffer size: 4096 RAS size: 64
Stream Prefetcher with degree = 4 and distance = 16
WARNING: The extended signature CACHE::prefetch_line(ip, base_addr, pf_addr, fill_this_level, prefetch_metadata) is deprecated.
WARNING: Use CACHE::prefetch_line(pf_addr, fill_this_level, prefetch_metadata) instead.
Heartbeat CPU 0 instructions: 10000000 cycles: 2500075 heartbeat IPC: 3.99988 cumulative IPC: 3.99988 (Simulation time: 0 hr 0 min 14 sec) 
Heartbeat CPU 0 instructions: 20000000 cycles: 5000075 heartbeat IPC: 4 cumulative IPC: 3.99994 (Simulation time: 0 hr 0 min 27 sec) 

Warmup complete CPU 0 instructions: 25000004 cycles: 6250076 (Simulation time: 0 hr 0 min 34 sec) 

Heartbeat CPU 0 instructions: 30000000 cycles: 18060407 heartbeat IPC: 0.765677 cumulative IPC: 0.423358 (Simulation time: 0 hr 0 min 45 sec) 
Heartbeat CPU 0 instructions: 40000002 cycles: 41716446 heartbeat IPC: 0.422725 cumulative IPC: 0.422936 (Simulation time: 0 hr 1 min 7 sec) 
Heartbeat CPU 0 instructions: 50000003 cycles: 65336462 heartbeat IPC: 0.42337 cumulative IPC: 0.423109 (Simulation time: 0 hr 1 min 30 sec) 
Finished CPU 0 instructions: 25000004 cycles: 59086387 cumulative IPC: 0.423109 (Simulation time: 0 hr 1 min 30 sec) 

ChampSim completed all CPUs

Region of Interest Statistics

CPU 0 cumulative IPC: 0.423109 instructions: 25000004 cycles: 59086387
cpu0_DTLB TOTAL     ACCESS:    4748721  HIT:    4740595  MISS:       8126
cpu0_DTLB LOAD      ACCESS:    3939131  HIT:    3931008  MISS:       8123
cpu0_DTLB RFO       ACCESS:     809590  HIT:     809587  MISS:          3
cpu0_DTLB PREFETCH  ACCESS:          0  HIT:          0  MISS:          0
cpu0_DTLB WRITEBACK ACCESS:          0  HIT:          0  MISS:          0
cpu0_DTLB TRANSLATION ACCESS:          0  HIT:          0  MISS:          0
cpu0_DTLB PREFETCH  REQUESTED:          0  ISSUED:          0  USEFUL:          0  USELESS:          0
cpu0_DTLB AVERAGE MISS LATENCY: 208.036 cycles
cpu0_ITLB TOTAL     ACCESS:    2857034  HIT:    2857034  MISS:          0
cpu0_ITLB LOAD      ACCESS:    2857034  HIT:    2857034  MISS:          0
cpu0_ITLB RFO       ACCESS:          0  HIT:          0  MISS:          0
cpu0_ITLB PREFETCH  ACCESS:          0  HIT:          0  MISS:          0
cpu0_ITLB WRITEBACK ACCESS:          0  HIT:          0  MISS:          0
cpu0_ITLB TRANSLATION ACCESS:          0  HIT:          0  MISS:          0
cpu0_ITLB PREFETCH  REQUESTED:          0  ISSUED:          0  USEFUL:          0  USELESS:          0
cpu0_ITLB AVERAGE MISS LATENCY: -nan cycles
cpu0_STLB TOTAL     ACCESS:       8126  HIT:        392  MISS:       7734
cpu0_STLB LOAD      ACCESS:       8123  HIT:        392  MISS:       7731
cpu0_STLB RFO       ACCESS:          3  HIT:          0  MISS:          3
cpu0_STLB PREFETCH  ACCESS:          0  HIT:          0  MISS:          0
cpu0_STLB WRITEBACK ACCESS:          0  HIT:          0  MISS:          0
cpu0_STLB TRANSLATION ACCESS:          0  HIT:          0  MISS:          0
cpu0_STLB PREFETCH  REQUESTED:          0  ISSUED:          0  USEFUL:          0  USELESS:          0
cpu0_STLB AVERAGE MISS LATENCY: 209.124 cycles
cpu0_L1D TOTAL     ACCESS:    5547886  HIT:    4945191  MISS:     602695
cpu0_L1D LOAD      ACCESS:    3382530  HIT:    2780752  MISS:     601778
cpu0_L1D RFO       ACCESS:    2157622  HIT:    2157450  MISS:        172
cpu0_L1D PREFETCH  ACCESS:          0  HIT:          0  MISS:          0
cpu0_L1D WRITEBACK ACCESS:          0  HIT:          0  MISS:          0
cpu0_L1D TRANSLATION ACCESS:       7734  HIT:       6989  MISS:        745
cpu0_L1D PREFETCH  REQUESTED:          0  ISSUED:          0  USEFUL:          0  USELESS:          0
cpu0_L1D AVERAGE MISS LATENCY: 54.4445 cycles
cpu0_L2C TOTAL     ACCESS:    1081891  HIT:     625396  MISS:     456495
cpu0_L2C LOAD      ACCESS:     601778  HIT:     370237  MISS:     231541
cpu0_L2C RFO       ACCESS:        172  HIT:          4  MISS:        168
cpu0_L2C PREFETCH  ACCESS:     477637  HIT:     252983  MISS:     224654
cpu0_L2C WRITEBACK ACCESS:       1559  HIT:       1559  MISS:          0
cpu0_L2C TRANSLATION ACCESS:        745  HIT:        613  MISS:        132
cpu0_L2C PREFETCH  REQUESTED:     505645  ISSUED:     504918  USEFUL:     217449  USELESS:       7241
cpu0_L2C AVERAGE MISS LATENCY: 115.723 cycles
LLC TOTAL     ACCESS:     457108  HIT:       1475  MISS:     455633
LLC LOAD      ACCESS:     231535  HIT:        741  MISS:     230794
LLC RFO       ACCESS:        168  HIT:          0  MISS:        168
LLC PREFETCH  ACCESS:     224660  HIT:         58  MISS:     224602
LLC WRITEBACK ACCESS:        613  HIT:        613  MISS:          0
LLC TRANSLATION ACCESS:        132  HIT:         63  MISS:         69
LLC PREFETCH  REQUESTED:          0  ISSUED:          0  USEFUL:          0  USELESS:          0
LLC AVERAGE MISS LATENCY: 94.9034 cycles

DRAM Statistics
 CHANNEL 0
 RQ ROW_BUFFER_HIT:     374426  ROW_BUFFER_MISS:      81207
 DBUS AVG_CONGESTED_CYCLE:    3.98671
 WQ ROW_BUFFER_HIT:        351  ROW_BUFFER_MISS:        266  FULL:          0


CPU 0 Branch Prediction Accuracy: 92.3646% MPKI: 19.576 Average ROB Occupancy at Mispredict: 33.472
Branch type MPKI
BRANCH_DIRECT_JUMP: 0
BRANCH_INDIRECT: 0
BRANCH_CONDITIONAL: 19.576
BRANCH_DIRECT_CALL: 0
BRANCH_INDIRECT_CALL: 0
BRANCH_RETURN: 0
