
*** ChampSim Multicore Out-of-Order Simulator ***

Warmup Instructions: 25000000
Simulation Instructions: 25000000
Number of CPUs: 1
Off-chip DRAM Size: 4 GiB Channels: 1 Width: 64-bit Data Rate: 3200 MT/s

VirtualMemory physical capacity: 8588881920 num_ppages: 2096895
VirtualMemory page size: 4096 log2_page_size: 12

CPU 0 runs /home/abhishekjagushte/Labs/COA/ass2/traces/603.bwaves_s-1740B.champsimtrace.xz
CPU 0 Bimodal branch predictor
Basic BTB sets: 1024 ways: 8 indirect buffer size: 4096 RAS size: 64
cpu0_L2C IP-based stride prefetcher
WARNING: The extended signature CACHE::prefetch_line(ip, base_addr, pf_addr, fill_this_level, prefetch_metadata) is deprecated.
WARNING: Use CACHE::prefetch_line(pf_addr, fill_this_level, prefetch_metadata) instead.
Heartbeat CPU 0 instructions: 10000003 cycles: 3642289 heartbeat IPC: 2.74553 cumulative IPC: 2.74553 (Simulation time: 0 hr 0 min 18 sec) 
Heartbeat CPU 0 instructions: 20000001 cycles: 7284431 heartbeat IPC: 2.74564 cumulative IPC: 2.74558 (Simulation time: 0 hr 0 min 36 sec) 

Warmup complete CPU 0 instructions: 25000001 cycles: 9105488 (Simulation time: 0 hr 0 min 45 sec) 

Heartbeat CPU 0 instructions: 30000003 cycles: 17361723 heartbeat IPC: 0.99233 cumulative IPC: 0.605603 (Simulation time: 0 hr 1 min 7 sec) 
Heartbeat CPU 0 instructions: 40000001 cycles: 33878167 heartbeat IPC: 0.605457 cumulative IPC: 0.605506 (Simulation time: 0 hr 1 min 55 sec) 
Heartbeat CPU 0 instructions: 50000002 cycles: 50400746 heartbeat IPC: 0.605232 cumulative IPC: 0.605396 (Simulation time: 0 hr 2 min 43 sec) 
Finished CPU 0 instructions: 25000001 cycles: 41295258 cumulative IPC: 0.605396 (Simulation time: 0 hr 2 min 43 sec) 

ChampSim completed all CPUs

Region of Interest Statistics

CPU 0 cumulative IPC: 0.605396 instructions: 25000001 cycles: 41295258
cpu0_DTLB TOTAL     ACCESS:    7900107  HIT:    7870976  MISS:      29131
cpu0_DTLB LOAD      ACCESS:    7332131  HIT:    7307876  MISS:      24255
cpu0_DTLB RFO       ACCESS:     567976  HIT:     563100  MISS:       4876
cpu0_DTLB PREFETCH  ACCESS:          0  HIT:          0  MISS:          0
cpu0_DTLB WRITEBACK ACCESS:          0  HIT:          0  MISS:          0
cpu0_DTLB TRANSLATION ACCESS:          0  HIT:          0  MISS:          0
cpu0_DTLB PREFETCH  REQUESTED:          0  ISSUED:          0  USEFUL:          0  USELESS:          0
cpu0_DTLB AVERAGE MISS LATENCY: 73.5122 cycles
cpu0_ITLB TOTAL     ACCESS:    2214676  HIT:    2214676  MISS:          0
cpu0_ITLB LOAD      ACCESS:    2214676  HIT:    2214676  MISS:          0
cpu0_ITLB RFO       ACCESS:          0  HIT:          0  MISS:          0
cpu0_ITLB PREFETCH  ACCESS:          0  HIT:          0  MISS:          0
cpu0_ITLB WRITEBACK ACCESS:          0  HIT:          0  MISS:          0
cpu0_ITLB TRANSLATION ACCESS:          0  HIT:          0  MISS:          0
cpu0_ITLB PREFETCH  REQUESTED:          0  ISSUED:          0  USEFUL:          0  USELESS:          0
cpu0_ITLB AVERAGE MISS LATENCY: -nan cycles
cpu0_STLB TOTAL     ACCESS:      29131  HIT:      21707  MISS:       7424
cpu0_STLB LOAD      ACCESS:      24255  HIT:      17021  MISS:       7234
cpu0_STLB RFO       ACCESS:       4876  HIT:       4686  MISS:        190
cpu0_STLB PREFETCH  ACCESS:          0  HIT:          0  MISS:          0
cpu0_STLB WRITEBACK ACCESS:          0  HIT:          0  MISS:          0
cpu0_STLB TRANSLATION ACCESS:          0  HIT:          0  MISS:          0
cpu0_STLB PREFETCH  REQUESTED:          0  ISSUED:          0  USEFUL:          0  USELESS:          0
cpu0_STLB AVERAGE MISS LATENCY: 252.373 cycles
cpu0_L1D TOTAL     ACCESS:    8079472  HIT:    7579219  MISS:     500253
cpu0_L1D LOAD      ACCESS:    6702429  HIT:    6214798  MISS:     487631
cpu0_L1D RFO       ACCESS:    1369619  HIT:    1357438  MISS:      12181
cpu0_L1D PREFETCH  ACCESS:          0  HIT:          0  MISS:          0
cpu0_L1D WRITEBACK ACCESS:          0  HIT:          0  MISS:          0
cpu0_L1D TRANSLATION ACCESS:       7424  HIT:       6983  MISS:        441
cpu0_L1D PREFETCH  REQUESTED:          0  ISSUED:          0  USEFUL:          0  USELESS:          0
cpu0_L1D AVERAGE MISS LATENCY: 393.26 cycles
cpu0_L2C TOTAL     ACCESS:     812818  HIT:     337632  MISS:     475186
cpu0_L2C LOAD      ACCESS:     487631  HIT:     180303  MISS:     307328
cpu0_L2C RFO       ACCESS:      12181  HIT:          0  MISS:      12181
cpu0_L2C PREFETCH  ACCESS:     300197  HIT:     144537  MISS:     155660
cpu0_L2C WRITEBACK ACCESS:      12368  HIT:      12368  MISS:          0
cpu0_L2C TRANSLATION ACCESS:        441  HIT:        424  MISS:         17
cpu0_L2C PREFETCH  REQUESTED:     810129  ISSUED:     780347  USEFUL:     376998  USELESS:          0
cpu0_L2C AVERAGE MISS LATENCY: 453.116 cycles
LLC TOTAL     ACCESS:     546201  HIT:      71116  MISS:     475085
LLC LOAD      ACCESS:      86001  HIT:      31002  MISS:      54999
LLC RFO       ACCESS:      12181  HIT:          0  MISS:      12181
LLC PREFETCH  ACCESS:     435789  HIT:      27902  MISS:     407887
LLC WRITEBACK ACCESS:      12213  HIT:      12211  MISS:          2
LLC TRANSLATION ACCESS:         17  HIT:          1  MISS:         16
LLC PREFETCH  REQUESTED:          0  ISSUED:          0  USEFUL:          0  USELESS:          0
LLC AVERAGE MISS LATENCY: 1137.87 cycles

DRAM Statistics
 CHANNEL 0
 RQ ROW_BUFFER_HIT:       3310  ROW_BUFFER_MISS:     471773
 DBUS AVG_CONGESTED_CYCLE:    3.99784
 WQ ROW_BUFFER_HIT:       4017  ROW_BUFFER_MISS:       8404  FULL:          0


CPU 0 Branch Prediction Accuracy: 62.4635% MPKI: 9.3696 Average ROB Occupancy at Mispredict: 292.368
Branch type MPKI
BRANCH_DIRECT_JUMP: 0
BRANCH_INDIRECT: 0
BRANCH_CONDITIONAL: 9.3696
BRANCH_DIRECT_CALL: 0
BRANCH_INDIRECT_CALL: 0
BRANCH_RETURN: 0

