*** ChampSim Multicore Out-of-Order Simulator ***

Warmup Instructions: 25000000
Simulation Instructions: 25000000
Number of CPUs: 1
Off-chip DRAM Size: 4 GiB Channels: 1 Width: 64-bit Data Rate: 3200 MT/s

VirtualMemory physical capacity: 8588881920 num_ppages: 2096895
VirtualMemory page size: 4096 log2_page_size: 12

CPU 0 runs ../TRACES/603.bwaves_s-1740B.champsimtrace.xz
CPU 0 Bimodal branch predictor
Basic BTB sets: 1024 ways: 8 indirect buffer size: 4096 RAS size: 64
Stream Prefetcher with degree = 4 and distance = 64
WARNING: The extended signature CACHE::prefetch_line(ip, base_addr, pf_addr, fill_this_level, prefetch_metadata) is deprecated.
WARNING: Use CACHE::prefetch_line(pf_addr, fill_this_level, prefetch_metadata) instead.
Heartbeat CPU 0 instructions: 10000004 cycles: 3642289 heartbeat IPC: 2.74553 cumulative IPC: 2.74553 (Simulation time: 0 hr 0 min 23 sec) 
Heartbeat CPU 0 instructions: 20000001 cycles: 7284434 heartbeat IPC: 2.74563 cumulative IPC: 2.74558 (Simulation time: 0 hr 0 min 45 sec) 

Warmup complete CPU 0 instructions: 25000001 cycles: 9105488 (Simulation time: 0 hr 0 min 56 sec) 

Heartbeat CPU 0 instructions: 30000003 cycles: 21870695 heartbeat IPC: 0.685577 cumulative IPC: 0.39169 (Simulation time: 0 hr 1 min 35 sec) 
Heartbeat CPU 0 instructions: 40000001 cycles: 47372862 heartbeat IPC: 0.392123 cumulative IPC: 0.391979 (Simulation time: 0 hr 2 min 52 sec) 
Heartbeat CPU 0 instructions: 50000002 cycles: 72882382 heartbeat IPC: 0.392011 cumulative IPC: 0.391991 (Simulation time: 0 hr 4 min 9 sec) 
Finished CPU 0 instructions: 25000001 cycles: 63776894 cumulative IPC: 0.391991 (Simulation time: 0 hr 4 min 9 sec) 

ChampSim completed all CPUs

Region of Interest Statistics

CPU 0 cumulative IPC: 0.391991 instructions: 25000001 cycles: 63776894
cpu0_DTLB TOTAL     ACCESS:    7931983  HIT:    7902705  MISS:      29278
cpu0_DTLB LOAD      ACCESS:    7370021  HIT:    7345585  MISS:      24436
cpu0_DTLB RFO       ACCESS:     561962  HIT:     557120  MISS:       4842
cpu0_DTLB PREFETCH  ACCESS:          0  HIT:          0  MISS:          0
cpu0_DTLB WRITEBACK ACCESS:          0  HIT:          0  MISS:          0
cpu0_DTLB TRANSLATION ACCESS:          0  HIT:          0  MISS:          0
cpu0_DTLB PREFETCH  REQUESTED:          0  ISSUED:          0  USEFUL:          0  USELESS:          0
cpu0_DTLB AVERAGE MISS LATENCY: 74.0517 cycles
cpu0_ITLB TOTAL     ACCESS:    2219611  HIT:    2219611  MISS:          0
cpu0_ITLB LOAD      ACCESS:    2219611  HIT:    2219611  MISS:          0
cpu0_ITLB RFO       ACCESS:          0  HIT:          0  MISS:          0
cpu0_ITLB PREFETCH  ACCESS:          0  HIT:          0  MISS:          0
cpu0_ITLB WRITEBACK ACCESS:          0  HIT:          0  MISS:          0
cpu0_ITLB TRANSLATION ACCESS:          0  HIT:          0  MISS:          0
cpu0_ITLB PREFETCH  REQUESTED:          0  ISSUED:          0  USEFUL:          0  USELESS:          0
cpu0_ITLB AVERAGE MISS LATENCY: -nan cycles
cpu0_STLB TOTAL     ACCESS:      29278  HIT:      21854  MISS:       7424
cpu0_STLB LOAD      ACCESS:      24436  HIT:      17202  MISS:       7234
cpu0_STLB RFO       ACCESS:       4842  HIT:       4652  MISS:        190
cpu0_STLB PREFETCH  ACCESS:          0  HIT:          0  MISS:          0
cpu0_STLB WRITEBACK ACCESS:          0  HIT:          0  MISS:          0
cpu0_STLB TRANSLATION ACCESS:          0  HIT:          0  MISS:          0
cpu0_STLB PREFETCH  REQUESTED:          0  ISSUED:          0  USEFUL:          0  USELESS:          0
cpu0_STLB AVERAGE MISS LATENCY: 255.778 cycles
cpu0_L1D TOTAL     ACCESS:    8085939  HIT:    7585683  MISS:     500256
cpu0_L1D LOAD      ACCESS:    6702656  HIT:    6215023  MISS:     487633
cpu0_L1D RFO       ACCESS:    1375859  HIT:    1363678  MISS:      12181
cpu0_L1D PREFETCH  ACCESS:          0  HIT:          0  MISS:          0
cpu0_L1D WRITEBACK ACCESS:          0  HIT:          0  MISS:          0
cpu0_L1D TRANSLATION ACCESS:       7424  HIT:       6982  MISS:        442
cpu0_L1D PREFETCH  REQUESTED:          0  ISSUED:          0  USEFUL:          0  USELESS:          0
cpu0_L1D AVERAGE MISS LATENCY: 705.382 cycles
cpu0_L2C TOTAL     ACCESS:     918266  HIT:     200206  MISS:     718060
cpu0_L2C LOAD      ACCESS:     487633  HIT:     113724  MISS:     373909
cpu0_L2C RFO       ACCESS:      12181  HIT:          0  MISS:      12181
cpu0_L2C PREFETCH  ACCESS:     405642  HIT:      73710  MISS:     331932
cpu0_L2C WRITEBACK ACCESS:      12368  HIT:      12367  MISS:          1
cpu0_L2C TRANSLATION ACCESS:        442  HIT:        405  MISS:         37
cpu0_L2C PREFETCH  REQUESTED:     938664  ISSUED:     770575  USEFUL:     146306  USELESS:     185787
cpu0_L2C AVERAGE MISS LATENCY: 994.761 cycles
LLC TOTAL     ACCESS:    1026604  HIT:     202442  MISS:     824162
LLC LOAD      ACCESS:     373909  HIT:     128664  MISS:     245245
LLC RFO       ACCESS:      12181  HIT:          0  MISS:      12181
LLC PREFETCH  ACCESS:     628308  HIT:      61613  MISS:     566695
LLC WRITEBACK ACCESS:      12169  HIT:      12157  MISS:         12
LLC TRANSLATION ACCESS:         37  HIT:          8  MISS:         29
LLC PREFETCH  REQUESTED:          0  ISSUED:          0  USEFUL:          0  USELESS:          0
LLC AVERAGE MISS LATENCY: 1774.92 cycles

DRAM Statistics
 CHANNEL 0
 RQ ROW_BUFFER_HIT:      33552  ROW_BUFFER_MISS:     790599
 DBUS AVG_CONGESTED_CYCLE:    3.98966
 WQ ROW_BUFFER_HIT:       2187  ROW_BUFFER_MISS:      10234  FULL:          0


CPU 0 Branch Prediction Accuracy: 62.4635% MPKI: 9.3696 Average ROB Occupancy at Mispredict: 291.922
Branch type MPKI
BRANCH_DIRECT_JUMP: 0
BRANCH_INDIRECT: 0
BRANCH_CONDITIONAL: 9.3696
BRANCH_DIRECT_CALL: 0
BRANCH_INDIRECT_CALL: 0
BRANCH_RETURN: 0
