bin/champsim --warmup_instructions 25000000 --simulation_instructions 25000000 ../TRACES/603.bwaves_s-1740B.champsimtrace.xz 

*** ChampSim Multicore Out-of-Order Simulator ***

Warmup Instructions: 25000000
Simulation Instructions: 25000000
Number of CPUs: 1
Off-chip DRAM Size: 4 GiB Channels: 1 Width: 64-bit Data Rate: 3200 MT/s

VirtualMemory physical capacity: 8588881920 num_ppages: 2096895
VirtualMemory page size: 4096 log2_page_size: 12

CPU 0 runs ../TRACES/603.bwaves_s-1740B.champsimtrace.xz
CPU 0 Bimodal branch predictor
Basic BTB sets: 1024 ways: 8 indirect buffer size: 4096 RAS size: 64
Stream Prefetcher with degree = 2 and distance = 16
WARNING: The extended signature CACHE::prefetch_line(ip, base_addr, pf_addr, fill_this_level, prefetch_metadata) is deprecated.
WARNING: Use CACHE::prefetch_line(pf_addr, fill_this_level, prefetch_metadata) instead.
Heartbeat CPU 0 instructions: 10000001 cycles: 3642288 heartbeat IPC: 2.74553 cumulative IPC: 2.74553 (Simulation time: 0 hr 0 min 23 sec) 
Heartbeat CPU 0 instructions: 20000004 cycles: 7284434 heartbeat IPC: 2.74563 cumulative IPC: 2.74558 (Simulation time: 0 hr 0 min 47 sec) 

Warmup complete CPU 0 instructions: 25000001 cycles: 9105488 (Simulation time: 0 hr 0 min 58 sec) 

Heartbeat CPU 0 instructions: 30000003 cycles: 19007990 heartbeat IPC: 0.852983 cumulative IPC: 0.504923 (Simulation time: 0 hr 1 min 30 sec) 
Heartbeat CPU 0 instructions: 40000001 cycles: 38813904 heartbeat IPC: 0.5049 cumulative IPC: 0.504907 (Simulation time: 0 hr 2 min 35 sec) 
Heartbeat CPU 0 instructions: 50000001 cycles: 58678565 heartbeat IPC: 0.503407 cumulative IPC: 0.504306 (Simulation time: 0 hr 3 min 41 sec) 
Finished CPU 0 instructions: 25000000 cycles: 49573077 cumulative IPC: 0.504306 (Simulation time: 0 hr 3 min 41 sec) 

ChampSim completed all CPUs

Region of Interest Statistics

CPU 0 cumulative IPC: 0.504306 instructions: 25000000 cycles: 49573077
cpu0_DTLB TOTAL     ACCESS:    7998886  HIT:    7969746  MISS:      29140
cpu0_DTLB LOAD      ACCESS:    7439763  HIT:    7415442  MISS:      24321
cpu0_DTLB RFO       ACCESS:     559123  HIT:     554304  MISS:       4819
cpu0_DTLB PREFETCH  ACCESS:          0  HIT:          0  MISS:          0
cpu0_DTLB WRITEBACK ACCESS:          0  HIT:          0  MISS:          0
cpu0_DTLB TRANSLATION ACCESS:          0  HIT:          0  MISS:          0
cpu0_DTLB PREFETCH  REQUESTED:          0  ISSUED:          0  USEFUL:          0  USELESS:          0
cpu0_DTLB AVERAGE MISS LATENCY: 73.346 cycles
cpu0_ITLB TOTAL     ACCESS:    2222676  HIT:    2222676  MISS:          0
cpu0_ITLB LOAD      ACCESS:    2222676  HIT:    2222676  MISS:          0
cpu0_ITLB RFO       ACCESS:          0  HIT:          0  MISS:          0
cpu0_ITLB PREFETCH  ACCESS:          0  HIT:          0  MISS:          0
cpu0_ITLB WRITEBACK ACCESS:          0  HIT:          0  MISS:          0
cpu0_ITLB TRANSLATION ACCESS:          0  HIT:          0  MISS:          0
cpu0_ITLB PREFETCH  REQUESTED:          0  ISSUED:          0  USEFUL:          0  USELESS:          0
cpu0_ITLB AVERAGE MISS LATENCY: -nan cycles
cpu0_STLB TOTAL     ACCESS:      29140  HIT:      21716  MISS:       7424
cpu0_STLB LOAD      ACCESS:      24321  HIT:      17087  MISS:       7234
cpu0_STLB RFO       ACCESS:       4819  HIT:       4629  MISS:        190
cpu0_STLB PREFETCH  ACCESS:          0  HIT:          0  MISS:          0
cpu0_STLB WRITEBACK ACCESS:          0  HIT:          0  MISS:          0
cpu0_STLB TRANSLATION ACCESS:          0  HIT:          0  MISS:          0
cpu0_STLB PREFETCH  REQUESTED:          0  ISSUED:          0  USEFUL:          0  USELESS:          0
cpu0_STLB AVERAGE MISS LATENCY: 251.799 cycles
cpu0_L1D TOTAL     ACCESS:    8209665  HIT:    7709407  MISS:     500258
cpu0_L1D LOAD      ACCESS:    6824918  HIT:    6337284  MISS:     487634
cpu0_L1D RFO       ACCESS:    1377323  HIT:    1365142  MISS:      12181
cpu0_L1D PREFETCH  ACCESS:          0  HIT:          0  MISS:          0
cpu0_L1D WRITEBACK ACCESS:          0  HIT:          0  MISS:          0
cpu0_L1D TRANSLATION ACCESS:       7424  HIT:       6981  MISS:        443
cpu0_L1D PREFETCH  REQUESTED:          0  ISSUED:          0  USEFUL:          0  USELESS:          0
cpu0_L1D AVERAGE MISS LATENCY: 559.796 cycles
cpu0_L2C TOTAL     ACCESS:     754213  HIT:     236655  MISS:     517558
cpu0_L2C LOAD      ACCESS:     487634  HIT:     207892  MISS:     279742
cpu0_L2C RFO       ACCESS:      12181  HIT:          0  MISS:      12181
cpu0_L2C PREFETCH  ACCESS:     241587  HIT:      15969  MISS:     225618
cpu0_L2C WRITEBACK ACCESS:      12368  HIT:      12368  MISS:          0
cpu0_L2C TRANSLATION ACCESS:        443  HIT:        426  MISS:         17
cpu0_L2C PREFETCH  REQUESTED:     374602  ISSUED:     366056  USEFUL:     188206  USELESS:      38571
cpu0_L2C AVERAGE MISS LATENCY: 942.707 cycles
LLC TOTAL     ACCESS:     628785  HIT:      98350  MISS:     530435
LLC LOAD      ACCESS:     278294  HIT:      62570  MISS:     215724
LLC RFO       ACCESS:      12181  HIT:          0  MISS:      12181
LLC PREFETCH  ACCESS:     326085  HIT:      23573  MISS:     302512
LLC WRITEBACK ACCESS:      12208  HIT:      12206  MISS:          2
LLC TRANSLATION ACCESS:         17  HIT:          1  MISS:         16
LLC PREFETCH  REQUESTED:          0  ISSUED:          0  USEFUL:          0  USELESS:          0
LLC AVERAGE MISS LATENCY: 1374.24 cycles

DRAM Statistics
 CHANNEL 0
 RQ ROW_BUFFER_HIT:      36032  ROW_BUFFER_MISS:     494401
 DBUS AVG_CONGESTED_CYCLE:    3.98611
 WQ ROW_BUFFER_HIT:       2437  ROW_BUFFER_MISS:      10018  FULL:          0


CPU 0 Branch Prediction Accuracy: 62.4635% MPKI: 9.3696 Average ROB Occupancy at Mispredict: 289.401
Branch type MPKI
BRANCH_DIRECT_JUMP: 0
BRANCH_INDIRECT: 0
BRANCH_CONDITIONAL: 9.3696
BRANCH_DIRECT_CALL: 0
BRANCH_INDIRECT_CALL: 0
BRANCH_RETURN: 0
