*** ChampSim Multicore Out-of-Order Simulator ***

Warmup Instructions: 25000000
Simulation Instructions: 25000000
Number of CPUs: 1
Off-chip DRAM Size: 4 GiB Channels: 1 Width: 64-bit Data Rate: 3200 MT/s

VirtualMemory physical capacity: 8588881920 num_ppages: 2096895
VirtualMemory page size: 4096 log2_page_size: 12

CPU 0 runs ../TRACES/603.bwaves_s-1740B.champsimtrace.xz
CPU 0 Bimodal branch predictor
Basic BTB sets: 1024 ways: 8 indirect buffer size: 4096 RAS size: 64
Stream Prefetcher with degree = 2 and distance = 4
WARNING: The extended signature CACHE::prefetch_line(ip, base_addr, pf_addr, fill_this_level, prefetch_metadata) is deprecated.
WARNING: Use CACHE::prefetch_line(pf_addr, fill_this_level, prefetch_metadata) instead.
Heartbeat CPU 0 instructions: 10000001 cycles: 3642288 heartbeat IPC: 2.74553 cumulative IPC: 2.74553 (Simulation time: 0 hr 0 min 24 sec) 
Heartbeat CPU 0 instructions: 20000001 cycles: 7284434 heartbeat IPC: 2.74563 cumulative IPC: 2.74558 (Simulation time: 0 hr 0 min 47 sec) 

Warmup complete CPU 0 instructions: 25000001 cycles: 9105488 (Simulation time: 0 hr 0 min 59 sec) 

Heartbeat CPU 0 instructions: 30000003 cycles: 18234048 heartbeat IPC: 0.913274 cumulative IPC: 0.547732 (Simulation time: 0 hr 1 min 30 sec) 
Heartbeat CPU 0 instructions: 40000001 cycles: 36465187 heartbeat IPC: 0.548512 cumulative IPC: 0.548252 (Simulation time: 0 hr 2 min 32 sec) 
Heartbeat CPU 0 instructions: 50000002 cycles: 54697809 heartbeat IPC: 0.548468 cumulative IPC: 0.548338 (Simulation time: 0 hr 3 min 34 sec) 
Finished CPU 0 instructions: 25000001 cycles: 45592321 cumulative IPC: 0.548338 (Simulation time: 0 hr 3 min 34 sec) 

ChampSim completed all CPUs

Region of Interest Statistics

CPU 0 cumulative IPC: 0.548338 instructions: 25000001 cycles: 45592321
cpu0_DTLB TOTAL     ACCESS:    7989121  HIT:    7959752  MISS:      29369
cpu0_DTLB LOAD      ACCESS:    7427211  HIT:    7402683  MISS:      24528
cpu0_DTLB RFO       ACCESS:     561910  HIT:     557069  MISS:       4841
cpu0_DTLB PREFETCH  ACCESS:          0  HIT:          0  MISS:          0
cpu0_DTLB WRITEBACK ACCESS:          0  HIT:          0  MISS:          0
cpu0_DTLB TRANSLATION ACCESS:          0  HIT:          0  MISS:          0
cpu0_DTLB PREFETCH  REQUESTED:          0  ISSUED:          0  USEFUL:          0  USELESS:          0
cpu0_DTLB AVERAGE MISS LATENCY: 72.6917 cycles
cpu0_ITLB TOTAL     ACCESS:    2218462  HIT:    2218462  MISS:          0
cpu0_ITLB LOAD      ACCESS:    2218462  HIT:    2218462  MISS:          0
cpu0_ITLB RFO       ACCESS:          0  HIT:          0  MISS:          0
cpu0_ITLB PREFETCH  ACCESS:          0  HIT:          0  MISS:          0
cpu0_ITLB WRITEBACK ACCESS:          0  HIT:          0  MISS:          0
cpu0_ITLB TRANSLATION ACCESS:          0  HIT:          0  MISS:          0
cpu0_ITLB PREFETCH  REQUESTED:          0  ISSUED:          0  USEFUL:          0  USELESS:          0
cpu0_ITLB AVERAGE MISS LATENCY: -nan cycles
cpu0_STLB TOTAL     ACCESS:      29369  HIT:      21945  MISS:       7424
cpu0_STLB LOAD      ACCESS:      24528  HIT:      17294  MISS:       7234
cpu0_STLB RFO       ACCESS:       4841  HIT:       4651  MISS:        190
cpu0_STLB PREFETCH  ACCESS:          0  HIT:          0  MISS:          0
cpu0_STLB WRITEBACK ACCESS:          0  HIT:          0  MISS:          0
cpu0_STLB TRANSLATION ACCESS:          0  HIT:          0  MISS:          0
cpu0_STLB PREFETCH  REQUESTED:          0  ISSUED:          0  USEFUL:          0  USELESS:          0
cpu0_STLB AVERAGE MISS LATENCY: 251.202 cycles
cpu0_L1D TOTAL     ACCESS:    8124156  HIT:    7623899  MISS:     500257
cpu0_L1D LOAD      ACCESS:    6732729  HIT:    6245098  MISS:     487631
cpu0_L1D RFO       ACCESS:    1384003  HIT:    1371822  MISS:      12181
cpu0_L1D PREFETCH  ACCESS:          0  HIT:          0  MISS:          0
cpu0_L1D WRITEBACK ACCESS:          0  HIT:          0  MISS:          0
cpu0_L1D TRANSLATION ACCESS:       7424  HIT:       6979  MISS:        445
cpu0_L1D PREFETCH  REQUESTED:          0  ISSUED:          0  USEFUL:          0  USELESS:          0
cpu0_L1D AVERAGE MISS LATENCY: 443.601 cycles
cpu0_L2C TOTAL     ACCESS:     689332  HIT:     208967  MISS:     480365
cpu0_L2C LOAD      ACCESS:     487631  HIT:     191308  MISS:     296323
cpu0_L2C RFO       ACCESS:      12181  HIT:          0  MISS:      12181
cpu0_L2C PREFETCH  ACCESS:     176707  HIT:       4863  MISS:     171844
cpu0_L2C WRITEBACK ACCESS:      12368  HIT:      12368  MISS:          0
cpu0_L2C TRANSLATION ACCESS:        445  HIT:        428  MISS:         17
cpu0_L2C PREFETCH  REQUESTED:     263882  ISSUED:     258430  USEFUL:     180141  USELESS:       5003
cpu0_L2C AVERAGE MISS LATENCY: 783.512 cycles
LLC TOTAL     ACCESS:     542469  HIT:      61775  MISS:     480694
LLC LOAD      ACCESS:     282972  HIT:      39342  MISS:     243630
LLC RFO       ACCESS:      12181  HIT:          0  MISS:      12181
LLC PREFETCH  ACCESS:     235084  HIT:      10217  MISS:     224867
LLC WRITEBACK ACCESS:      12215  HIT:      12213  MISS:          2
LLC TRANSLATION ACCESS:         17  HIT:          3  MISS:         14
LLC PREFETCH  REQUESTED:          0  ISSUED:          0  USEFUL:          0  USELESS:          0
LLC AVERAGE MISS LATENCY: 975.85 cycles

DRAM Statistics
 CHANNEL 0
 RQ ROW_BUFFER_HIT:       4575  ROW_BUFFER_MISS:     476117
 DBUS AVG_CONGESTED_CYCLE:     3.9955
 WQ ROW_BUFFER_HIT:       1760  ROW_BUFFER_MISS:      10679  FULL:          0


CPU 0 Branch Prediction Accuracy: 62.4635% MPKI: 9.3696 Average ROB Occupancy at Mispredict: 292.388
Branch type MPKI
BRANCH_DIRECT_JUMP: 0
BRANCH_INDIRECT: 0
BRANCH_CONDITIONAL: 9.3696
BRANCH_DIRECT_CALL: 0
BRANCH_INDIRECT_CALL: 0
BRANCH_RETURN: 0
