
*** ChampSim Multicore Out-of-Order Simulator ***

Warmup Instructions: 25000000
Simulation Instructions: 25000000
Number of CPUs: 1
Off-chip DRAM Size: 4 GiB Channels: 1 Width: 64-bit Data Rate: 3200 MT/s

VirtualMemory physical capacity: 8588881920 num_ppages: 2096895
VirtualMemory page size: 4096 log2_page_size: 12

CPU 0 runs /home/abhishekjagushte/Labs/COA/ass2/traces/603.bwaves_s-1740B.champsimtrace.xz
CPU 0 Bimodal branch predictor
Basic BTB sets: 1024 ways: 8 indirect buffer size: 4096 RAS size: 64
cpu0_L2C IP-based stride prefetcher
WARNING: The extended signature CACHE::prefetch_line(ip, base_addr, pf_addr, fill_this_level, prefetch_metadata) is deprecated.
WARNING: Use CACHE::prefetch_line(pf_addr, fill_this_level, prefetch_metadata) instead.
Heartbeat CPU 0 instructions: 10000003 cycles: 3642289 heartbeat IPC: 2.74553 cumulative IPC: 2.74553 (Simulation time: 0 hr 0 min 20 sec) 
Heartbeat CPU 0 instructions: 20000001 cycles: 7284431 heartbeat IPC: 2.74564 cumulative IPC: 2.74558 (Simulation time: 0 hr 0 min 40 sec) 

Warmup complete CPU 0 instructions: 25000001 cycles: 9105488 (Simulation time: 0 hr 0 min 49 sec) 

Heartbeat CPU 0 instructions: 30000003 cycles: 15831317 heartbeat IPC: 1.17002 cumulative IPC: 0.743403 (Simulation time: 0 hr 1 min 9 sec) 
Heartbeat CPU 0 instructions: 40000001 cycles: 29276967 heartbeat IPC: 0.743735 cumulative IPC: 0.743624 (Simulation time: 0 hr 1 min 48 sec) 
Heartbeat CPU 0 instructions: 50000002 cycles: 42736712 heartbeat IPC: 0.742956 cumulative IPC: 0.743357 (Simulation time: 0 hr 2 min 28 sec) 
Finished CPU 0 instructions: 25000001 cycles: 33631224 cumulative IPC: 0.743357 (Simulation time: 0 hr 2 min 28 sec) 

ChampSim completed all CPUs

Region of Interest Statistics

CPU 0 cumulative IPC: 0.743357 instructions: 25000001 cycles: 33631224
cpu0_DTLB TOTAL     ACCESS:    7983231  HIT:    7954480  MISS:      28751
cpu0_DTLB LOAD      ACCESS:    7415223  HIT:    7391322  MISS:      23901
cpu0_DTLB RFO       ACCESS:     568008  HIT:     563158  MISS:       4850
cpu0_DTLB PREFETCH  ACCESS:          0  HIT:          0  MISS:          0
cpu0_DTLB WRITEBACK ACCESS:          0  HIT:          0  MISS:          0
cpu0_DTLB TRANSLATION ACCESS:          0  HIT:          0  MISS:          0
cpu0_DTLB PREFETCH  REQUESTED:          0  ISSUED:          0  USEFUL:          0  USELESS:          0
cpu0_DTLB AVERAGE MISS LATENCY: 74.2994 cycles
cpu0_ITLB TOTAL     ACCESS:    2216709  HIT:    2216709  MISS:          0
cpu0_ITLB LOAD      ACCESS:    2216709  HIT:    2216709  MISS:          0
cpu0_ITLB RFO       ACCESS:          0  HIT:          0  MISS:          0
cpu0_ITLB PREFETCH  ACCESS:          0  HIT:          0  MISS:          0
cpu0_ITLB WRITEBACK ACCESS:          0  HIT:          0  MISS:          0
cpu0_ITLB TRANSLATION ACCESS:          0  HIT:          0  MISS:          0
cpu0_ITLB PREFETCH  REQUESTED:          0  ISSUED:          0  USEFUL:          0  USELESS:          0
cpu0_ITLB AVERAGE MISS LATENCY: -nan cycles
cpu0_STLB TOTAL     ACCESS:      28751  HIT:      21327  MISS:       7424
cpu0_STLB LOAD      ACCESS:      23901  HIT:      16667  MISS:       7234
cpu0_STLB RFO       ACCESS:       4850  HIT:       4660  MISS:        190
cpu0_STLB PREFETCH  ACCESS:          0  HIT:          0  MISS:          0
cpu0_STLB WRITEBACK ACCESS:          0  HIT:          0  MISS:          0
cpu0_STLB TRANSLATION ACCESS:          0  HIT:          0  MISS:          0
cpu0_STLB PREFETCH  REQUESTED:          0  ISSUED:          0  USEFUL:          0  USELESS:          0
cpu0_STLB AVERAGE MISS LATENCY: 252.152 cycles
cpu0_L1D TOTAL     ACCESS:    8213087  HIT:    7712835  MISS:     500252
cpu0_L1D LOAD      ACCESS:    6835984  HIT:    6348352  MISS:     487632
cpu0_L1D RFO       ACCESS:    1369679  HIT:    1357498  MISS:      12181
cpu0_L1D PREFETCH  ACCESS:          0  HIT:          0  MISS:          0
cpu0_L1D WRITEBACK ACCESS:          0  HIT:          0  MISS:          0
cpu0_L1D TRANSLATION ACCESS:       7424  HIT:       6985  MISS:        439
cpu0_L1D PREFETCH  REQUESTED:          0  ISSUED:          0  USEFUL:          0  USELESS:          0
cpu0_L1D AVERAGE MISS LATENCY: 257.224 cycles
cpu0_L2C TOTAL     ACCESS:     993316  HIT:     518142  MISS:     475174
cpu0_L2C LOAD      ACCESS:     487632  HIT:     248512  MISS:     239120
cpu0_L2C RFO       ACCESS:      12181  HIT:          0  MISS:      12181
cpu0_L2C PREFETCH  ACCESS:     480696  HIT:     256841  MISS:     223855
cpu0_L2C WRITEBACK ACCESS:      12368  HIT:      12368  MISS:          0
cpu0_L2C TRANSLATION ACCESS:        439  HIT:        421  MISS:         18
cpu0_L2C PREFETCH  REQUESTED:     950587  ISSUED:     925629  USEFUL:     392515  USELESS:          0
cpu0_L2C AVERAGE MISS LATENCY: 462.132 cycles
LLC TOTAL     ACCESS:     577658  HIT:     102575  MISS:     475083
LLC LOAD      ACCESS:      70475  HIT:      32900  MISS:      37575
LLC RFO       ACCESS:      12181  HIT:          0  MISS:      12181
LLC PREFETCH  ACCESS:     482771  HIT:      57461  MISS:     425310
LLC WRITEBACK ACCESS:      12213  HIT:      12211  MISS:          2
LLC TRANSLATION ACCESS:         18  HIT:          3  MISS:         15
LLC PREFETCH  REQUESTED:          0  ISSUED:          0  USEFUL:          0  USELESS:          0
LLC AVERAGE MISS LATENCY: 962.734 cycles

DRAM Statistics
 CHANNEL 0
 RQ ROW_BUFFER_HIT:       1938  ROW_BUFFER_MISS:     473143
 DBUS AVG_CONGESTED_CYCLE:    3.98961
 WQ ROW_BUFFER_HIT:       3940  ROW_BUFFER_MISS:       8483  FULL:          0


CPU 0 Branch Prediction Accuracy: 62.4635% MPKI: 9.3696 Average ROB Occupancy at Mispredict: 291.658
Branch type MPKI
BRANCH_DIRECT_JUMP: 0
BRANCH_INDIRECT: 0
BRANCH_CONDITIONAL: 9.3696
BRANCH_DIRECT_CALL: 0
BRANCH_INDIRECT_CALL: 0
BRANCH_RETURN: 0

