
*** ChampSim Multicore Out-of-Order Simulator ***

Warmup Instructions: 25000000
Simulation Instructions: 25000000
Number of CPUs: 1
Off-chip DRAM Size: 4 GiB Channels: 1 Width: 64-bit Data Rate: 3200 MT/s

VirtualMemory physical capacity: 8588881920 num_ppages: 2096895
VirtualMemory page size: 4096 log2_page_size: 12

CPU 0 runs /home/abhishekjagushte/Labs/COA/ass2/traces/bc-0.trace.gz
CPU 0 Bimodal branch predictor
Basic BTB sets: 1024 ways: 8 indirect buffer size: 4096 RAS size: 64
cpu0_L2C IP-based stride prefetcher
WARNING: The extended signature CACHE::prefetch_line(ip, base_addr, pf_addr, fill_this_level, prefetch_metadata) is deprecated.
WARNING: Use CACHE::prefetch_line(pf_addr, fill_this_level, prefetch_metadata) instead.
Heartbeat CPU 0 instructions: 10000002 cycles: 3203422 heartbeat IPC: 3.12166 cumulative IPC: 3.12166 (Simulation time: 0 hr 0 min 17 sec) 
Heartbeat CPU 0 instructions: 20000003 cycles: 5712246 heartbeat IPC: 3.98593 cumulative IPC: 3.50125 (Simulation time: 0 hr 0 min 30 sec) 

Warmup complete CPU 0 instructions: 25000001 cycles: 6963676 (Simulation time: 0 hr 0 min 36 sec) 

Heartbeat CPU 0 instructions: 30000001 cycles: 40257875 heartbeat IPC: 0.289472 cumulative IPC: 0.150176 (Simulation time: 0 hr 0 min 54 sec) 
Heartbeat CPU 0 instructions: 40000002 cycles: 108554659 heartbeat IPC: 0.14642 cumulative IPC: 0.147651 (Simulation time: 0 hr 1 min 32 sec) 
Heartbeat CPU 0 instructions: 50000002 cycles: 176673364 heartbeat IPC: 0.146803 cumulative IPC: 0.14731 (Simulation time: 0 hr 2 min 10 sec) 
Finished CPU 0 instructions: 25000001 cycles: 169709688 cumulative IPC: 0.14731 (Simulation time: 0 hr 2 min 10 sec) 

ChampSim completed all CPUs

Region of Interest Statistics

CPU 0 cumulative IPC: 0.14731 instructions: 25000001 cycles: 169709688
cpu0_DTLB TOTAL     ACCESS:    5775947  HIT:    5042165  MISS:     733782
cpu0_DTLB LOAD      ACCESS:    4548606  HIT:    4071418  MISS:     477188
cpu0_DTLB RFO       ACCESS:    1227341  HIT:     970747  MISS:     256594
cpu0_DTLB PREFETCH  ACCESS:          0  HIT:          0  MISS:          0
cpu0_DTLB WRITEBACK ACCESS:          0  HIT:          0  MISS:          0
cpu0_DTLB TRANSLATION ACCESS:          0  HIT:          0  MISS:          0
cpu0_DTLB PREFETCH  REQUESTED:          0  ISSUED:          0  USEFUL:          0  USELESS:          0
cpu0_DTLB AVERAGE MISS LATENCY: 13.8611 cycles
cpu0_ITLB TOTAL     ACCESS:    3107161  HIT:    3107161  MISS:          0
cpu0_ITLB LOAD      ACCESS:    3107161  HIT:    3107161  MISS:          0
cpu0_ITLB RFO       ACCESS:          0  HIT:          0  MISS:          0
cpu0_ITLB PREFETCH  ACCESS:          0  HIT:          0  MISS:          0
cpu0_ITLB WRITEBACK ACCESS:          0  HIT:          0  MISS:          0
cpu0_ITLB TRANSLATION ACCESS:          0  HIT:          0  MISS:          0
cpu0_ITLB PREFETCH  REQUESTED:          0  ISSUED:          0  USEFUL:          0  USELESS:          0
cpu0_ITLB AVERAGE MISS LATENCY: -nan cycles
cpu0_L1I TOTAL     ACCESS:         86  HIT:         86  MISS:          0
cpu0_L1I LOAD      ACCESS:         86  HIT:         86  MISS:          0
cpu0_L1I RFO       ACCESS:          0  HIT:          0  MISS:          0
cpu0_L1I PREFETCH  ACCESS:          0  HIT:          0  MISS:          0
cpu0_L1I WRITEBACK ACCESS:          0  HIT:          0  MISS:          0
cpu0_L1I TRANSLATION ACCESS:          0  HIT:          0  MISS:          0
cpu0_L1I PREFETCH  REQUESTED:          0  ISSUED:          0  USEFUL:          0  USELESS:          0
cpu0_L1I AVERAGE MISS LATENCY: -nan cycles
cpu0_STLB TOTAL     ACCESS:     733782  HIT:     397124  MISS:     336658
cpu0_STLB LOAD      ACCESS:     477188  HIT:     309937  MISS:     167251
cpu0_STLB RFO       ACCESS:     256594  HIT:      87187  MISS:     169407
cpu0_STLB PREFETCH  ACCESS:          0  HIT:          0  MISS:          0
cpu0_STLB WRITEBACK ACCESS:          0  HIT:          0  MISS:          0
cpu0_STLB TRANSLATION ACCESS:          0  HIT:          0  MISS:          0
cpu0_STLB PREFETCH  REQUESTED:          0  ISSUED:          0  USEFUL:          0  USELESS:          0
cpu0_STLB AVERAGE MISS LATENCY: 10.4161 cycles
cpu0_L1D TOTAL     ACCESS:    6855289  HIT:    4768591  MISS:    2086698
cpu0_L1D LOAD      ACCESS:    5228578  HIT:    3154306  MISS:    2074272
cpu0_L1D RFO       ACCESS:    1299157  HIT:    1288125  MISS:      11032
cpu0_L1D PREFETCH  ACCESS:          0  HIT:          0  MISS:          0
cpu0_L1D WRITEBACK ACCESS:          0  HIT:          0  MISS:          0
cpu0_L1D TRANSLATION ACCESS:     327554  HIT:     326160  MISS:       1394
cpu0_L1D PREFETCH  REQUESTED:          0  ISSUED:          0  USEFUL:          0  USELESS:          0
cpu0_L1D AVERAGE MISS LATENCY: 161.767 cycles
cpu0_L2C TOTAL     ACCESS:    3162639  HIT:    1170436  MISS:    1992203
cpu0_L2C LOAD      ACCESS:    2074272  HIT:     331755  MISS:    1742517
cpu0_L2C RFO       ACCESS:      11032  HIT:        120  MISS:      10912
cpu0_L2C PREFETCH  ACCESS:     427119  HIT:     188406  MISS:     238713
cpu0_L2C WRITEBACK ACCESS:     648822  HIT:     648809  MISS:         13
cpu0_L2C TRANSLATION ACCESS:       1394  HIT:       1346  MISS:         48
cpu0_L2C PREFETCH  REQUESTED:     463049  ISSUED:     455406  USEFUL:     128603  USELESS:     119207
cpu0_L2C AVERAGE MISS LATENCY: 186.624 cycles
LLC TOTAL     ACCESS:    2626966  HIT:    1277761  MISS:    1349205
LLC LOAD      ACCESS:    1733823  HIT:     614333  MISS:    1119490
LLC RFO       ACCESS:      10912  HIT:        519  MISS:      10393
LLC PREFETCH  ACCESS:     247764  HIT:      28548  MISS:     219216
LLC WRITEBACK ACCESS:     634419  HIT:     634350  MISS:         69
LLC TRANSLATION ACCESS:         48  HIT:         11  MISS:         37
LLC PREFETCH  REQUESTED:          0  ISSUED:          0  USEFUL:          0  USELESS:          0
LLC AVERAGE MISS LATENCY: 246.941 cycles

DRAM Statistics
 CHANNEL 0
 RQ ROW_BUFFER_HIT:      93241  ROW_BUFFER_MISS:    1255186
 DBUS AVG_CONGESTED_CYCLE:    3.95882
 WQ ROW_BUFFER_HIT:       1126  ROW_BUFFER_MISS:     543062  FULL:          0


CPU 0 Branch Prediction Accuracy: 81.1279% MPKI: 35.6282 Average ROB Occupancy at Mispredict: 24.2636
Branch type MPKI
BRANCH_DIRECT_JUMP: 0
BRANCH_INDIRECT: 0
BRANCH_CONDITIONAL: 35.6282
BRANCH_DIRECT_CALL: 0
BRANCH_INDIRECT_CALL: 0
BRANCH_RETURN: 0

