
*** ChampSim Multicore Out-of-Order Simulator ***

Warmup Instructions: 25000000
Simulation Instructions: 25000000
Number of CPUs: 1
Off-chip DRAM Size: 4 GiB Channels: 1 Width: 64-bit Data Rate: 3200 MT/s

VirtualMemory physical capacity: 8588881920 num_ppages: 2096895
VirtualMemory page size: 4096 log2_page_size: 12

CPU 0 runs ../TRACES/bc-0.trace.gz
CPU 0 Bimodal branch predictor
Basic BTB sets: 1024 ways: 8 indirect buffer size: 4096 RAS size: 64
Stream Plus Stride Prefetcher with degree = 2 and distance = 4
WARNING: The extended signature CACHE::prefetch_line(ip, base_addr, pf_addr, fill_this_level, prefetch_metadata) is deprecated.
WARNING: Use CACHE::prefetch_line(pf_addr, fill_this_level, prefetch_metadata) instead.
Heartbeat CPU 0 instructions: 10000002 cycles: 3203425 heartbeat IPC: 3.12166 cumulative IPC: 3.12166 (Simulation time: 0 hr 0 min 22 sec) 
Heartbeat CPU 0 instructions: 20000001 cycles: 5712249 heartbeat IPC: 3.98593 cumulative IPC: 3.50125 (Simulation time: 0 hr 0 min 37 sec) 

Warmup complete CPU 0 instructions: 25000004 cycles: 6963681 (Simulation time: 0 hr 0 min 44 sec) 

Heartbeat CPU 0 instructions: 30000001 cycles: 41646377 heartbeat IPC: 0.278287 cumulative IPC: 0.144164 (Simulation time: 0 hr 1 min 9 sec) 
Heartbeat CPU 0 instructions: 40000002 cycles: 112746414 heartbeat IPC: 0.140647 cumulative IPC: 0.1418 (Simulation time: 0 hr 2 min 0 sec) 
Heartbeat CPU 0 instructions: 50000002 cycles: 183586757 heartbeat IPC: 0.141162 cumulative IPC: 0.141544 (Simulation time: 0 hr 2 min 52 sec) 
Finished CPU 0 instructions: 25000003 cycles: 176623077 cumulative IPC: 0.141544 (Simulation time: 0 hr 2 min 52 sec) 

ChampSim completed all CPUs

Region of Interest Statistics

CPU 0 cumulative IPC: 0.141544 instructions: 25000003 cycles: 176623077
cpu0_DTLB TOTAL     ACCESS:    5780090  HIT:    5046309  MISS:     733781
cpu0_DTLB LOAD      ACCESS:    4552528  HIT:    4074818  MISS:     477710
cpu0_DTLB RFO       ACCESS:    1227562  HIT:     971491  MISS:     256071
cpu0_DTLB PREFETCH  ACCESS:          0  HIT:          0  MISS:          0
cpu0_DTLB WRITEBACK ACCESS:          0  HIT:          0  MISS:          0
cpu0_DTLB TRANSLATION ACCESS:          0  HIT:          0  MISS:          0
cpu0_DTLB PREFETCH  REQUESTED:          0  ISSUED:          0  USEFUL:          0  USELESS:          0
cpu0_DTLB AVERAGE MISS LATENCY: 13.8802 cycles
cpu0_ITLB TOTAL     ACCESS:    3107161  HIT:    3107161  MISS:          0
cpu0_ITLB LOAD      ACCESS:    3107161  HIT:    3107161  MISS:          0
cpu0_ITLB RFO       ACCESS:          0  HIT:          0  MISS:          0
cpu0_ITLB PREFETCH  ACCESS:          0  HIT:          0  MISS:          0
cpu0_ITLB WRITEBACK ACCESS:          0  HIT:          0  MISS:          0
cpu0_ITLB TRANSLATION ACCESS:          0  HIT:          0  MISS:          0
cpu0_ITLB PREFETCH  REQUESTED:          0  ISSUED:          0  USEFUL:          0  USELESS:          0
cpu0_ITLB AVERAGE MISS LATENCY: -nan cycles
cpu0_L1I TOTAL     ACCESS:         86  HIT:         86  MISS:          0
cpu0_L1I LOAD      ACCESS:         86  HIT:         86  MISS:          0
cpu0_L1I RFO       ACCESS:          0  HIT:          0  MISS:          0
cpu0_L1I PREFETCH  ACCESS:          0  HIT:          0  MISS:          0
cpu0_L1I WRITEBACK ACCESS:          0  HIT:          0  MISS:          0
cpu0_L1I TRANSLATION ACCESS:          0  HIT:          0  MISS:          0
cpu0_L1I PREFETCH  REQUESTED:          0  ISSUED:          0  USEFUL:          0  USELESS:          0
cpu0_L1I AVERAGE MISS LATENCY: -nan cycles
cpu0_STLB TOTAL     ACCESS:     733781  HIT:     397123  MISS:     336658
cpu0_STLB LOAD      ACCESS:     477710  HIT:     310114  MISS:     167596
cpu0_STLB RFO       ACCESS:     256071  HIT:      87009  MISS:     169062
cpu0_STLB PREFETCH  ACCESS:          0  HIT:          0  MISS:          0
cpu0_STLB WRITEBACK ACCESS:          0  HIT:          0  MISS:          0
cpu0_STLB TRANSLATION ACCESS:          0  HIT:          0  MISS:          0
cpu0_STLB PREFETCH  REQUESTED:          0  ISSUED:          0  USEFUL:          0  USELESS:          0
cpu0_STLB AVERAGE MISS LATENCY: 10.4539 cycles
cpu0_L1D TOTAL     ACCESS:    6851229  HIT:    4764533  MISS:    2086696
cpu0_L1D LOAD      ACCESS:    5224985  HIT:    3150715  MISS:    2074270
cpu0_L1D RFO       ACCESS:    1298979  HIT:    1287947  MISS:      11032
cpu0_L1D PREFETCH  ACCESS:          0  HIT:          0  MISS:          0
cpu0_L1D WRITEBACK ACCESS:          0  HIT:          0  MISS:          0
cpu0_L1D TRANSLATION ACCESS:     327265  HIT:     325871  MISS:       1394
cpu0_L1D PREFETCH  REQUESTED:          0  ISSUED:          0  USEFUL:          0  USELESS:          0
cpu0_L1D AVERAGE MISS LATENCY: 161.359 cycles
cpu0_L2C TOTAL     ACCESS:    2813031  HIT:     934734  MISS:    1878297
cpu0_L2C LOAD      ACCESS:    2074270  HIT:     266342  MISS:    1807928
cpu0_L2C RFO       ACCESS:      11032  HIT:        128  MISS:      10904
cpu0_L2C PREFETCH  ACCESS:      77514  HIT:      18109  MISS:      59405
cpu0_L2C WRITEBACK ACCESS:     648821  HIT:     648808  MISS:         13
cpu0_L2C TRANSLATION ACCESS:       1394  HIT:       1347  MISS:         47
cpu0_L2C PREFETCH  REQUESTED:      88070  ISSUED:      85383  USEFUL:      40798  USELESS:      21204
cpu0_L2C AVERAGE MISS LATENCY: 174.46 cycles
LLC TOTAL     ACCESS:    2512482  HIT:    1271603  MISS:    1240879
LLC LOAD      ACCESS:    1805379  HIT:     633009  MISS:    1172370
LLC RFO       ACCESS:      10904  HIT:        543  MISS:      10361
LLC PREFETCH  ACCESS:      62394  HIT:       4349  MISS:      58045
LLC WRITEBACK ACCESS:     633758  HIT:     633691  MISS:         67
LLC TRANSLATION ACCESS:         47  HIT:         11  MISS:         36
LLC PREFETCH  REQUESTED:          0  ISSUED:          0  USEFUL:          0  USELESS:          0
LLC AVERAGE MISS LATENCY: 232.964 cycles

DRAM Statistics
 CHANNEL 0
 RQ ROW_BUFFER_HIT:      60306  ROW_BUFFER_MISS:    1179827
 DBUS AVG_CONGESTED_CYCLE:    3.95894
 WQ ROW_BUFFER_HIT:       1146  ROW_BUFFER_MISS:     535705  FULL:          0


CPU 0 Branch Prediction Accuracy: 81.1279% MPKI: 35.6282 Average ROB Occupancy at Mispredict: 23.0665
Branch type MPKI
BRANCH_DIRECT_JUMP: 0
BRANCH_INDIRECT: 0
BRANCH_CONDITIONAL: 35.6282
BRANCH_DIRECT_CALL: 0
BRANCH_INDIRECT_CALL: 0
BRANCH_RETURN: 0

