*** ChampSim Multicore Out-of-Order Simulator ***

Warmup Instructions: 25000000
Simulation Instructions: 25000000
Number of CPUs: 1
Off-chip DRAM Size: 4 GiB Channels: 1 Width: 64-bit Data Rate: 3200 MT/s

VirtualMemory physical capacity: 8588881920 num_ppages: 2096895
VirtualMemory page size: 4096 log2_page_size: 12

CPU 0 runs ../TRACES/bc-0.trace.gz
CPU 0 Bimodal branch predictor
Basic BTB sets: 1024 ways: 8 indirect buffer size: 4096 RAS size: 64
Stream Prefetcher with degree = 2 and distance = 16
WARNING: The extended signature CACHE::prefetch_line(ip, base_addr, pf_addr, fill_this_level, prefetch_metadata) is deprecated.
WARNING: Use CACHE::prefetch_line(pf_addr, fill_this_level, prefetch_metadata) instead.
Heartbeat CPU 0 instructions: 10000002 cycles: 3203424 heartbeat IPC: 3.12166 cumulative IPC: 3.12166 (Simulation time: 0 hr 0 min 23 sec) 
Heartbeat CPU 0 instructions: 20000003 cycles: 5712248 heartbeat IPC: 3.98593 cumulative IPC: 3.50125 (Simulation time: 0 hr 0 min 38 sec) 

Warmup complete CPU 0 instructions: 25000001 cycles: 6963678 (Simulation time: 0 hr 0 min 45 sec) 

Heartbeat CPU 0 instructions: 30000001 cycles: 42953868 heartbeat IPC: 0.268517 cumulative IPC: 0.138927 (Simulation time: 0 hr 1 min 12 sec) 
Heartbeat CPU 0 instructions: 40000002 cycles: 115989204 heartbeat IPC: 0.13692 cumulative IPC: 0.137582 (Simulation time: 0 hr 2 min 6 sec) 
Heartbeat CPU 0 instructions: 50000002 cycles: 189134146 heartbeat IPC: 0.136715 cumulative IPC: 0.137234 (Simulation time: 0 hr 3 min 1 sec) 
Finished CPU 0 instructions: 25000001 cycles: 182170468 cumulative IPC: 0.137234 (Simulation time: 0 hr 3 min 1 sec) 

ChampSim completed all CPUs

Region of Interest Statistics

CPU 0 cumulative IPC: 0.137234 instructions: 25000001 cycles: 182170468
cpu0_DTLB TOTAL     ACCESS:    5775615  HIT:    5041833  MISS:     733782
cpu0_DTLB LOAD      ACCESS:    4547796  HIT:    4070168  MISS:     477628
cpu0_DTLB RFO       ACCESS:    1227819  HIT:     971665  MISS:     256154
cpu0_DTLB PREFETCH  ACCESS:          0  HIT:          0  MISS:          0
cpu0_DTLB WRITEBACK ACCESS:          0  HIT:          0  MISS:          0
cpu0_DTLB TRANSLATION ACCESS:          0  HIT:          0  MISS:          0
cpu0_DTLB PREFETCH  REQUESTED:          0  ISSUED:          0  USEFUL:          0  USELESS:          0
cpu0_DTLB AVERAGE MISS LATENCY: 13.8428 cycles
cpu0_ITLB TOTAL     ACCESS:    3107161  HIT:    3107161  MISS:          0
cpu0_ITLB LOAD      ACCESS:    3107161  HIT:    3107161  MISS:          0
cpu0_ITLB RFO       ACCESS:          0  HIT:          0  MISS:          0
cpu0_ITLB PREFETCH  ACCESS:          0  HIT:          0  MISS:          0
cpu0_ITLB WRITEBACK ACCESS:          0  HIT:          0  MISS:          0
cpu0_ITLB TRANSLATION ACCESS:          0  HIT:          0  MISS:          0
cpu0_ITLB PREFETCH  REQUESTED:          0  ISSUED:          0  USEFUL:          0  USELESS:          0
cpu0_ITLB AVERAGE MISS LATENCY: -nan cycles
cpu0_L1I TOTAL     ACCESS:         86  HIT:         86  MISS:          0
cpu0_L1I LOAD      ACCESS:         86  HIT:         86  MISS:          0
cpu0_L1I RFO       ACCESS:          0  HIT:          0  MISS:          0
cpu0_L1I PREFETCH  ACCESS:          0  HIT:          0  MISS:          0
cpu0_L1I WRITEBACK ACCESS:          0  HIT:          0  MISS:          0
cpu0_L1I TRANSLATION ACCESS:          0  HIT:          0  MISS:          0
cpu0_L1I PREFETCH  REQUESTED:          0  ISSUED:          0  USEFUL:          0  USELESS:          0
cpu0_L1I AVERAGE MISS LATENCY: -nan cycles
cpu0_STLB TOTAL     ACCESS:     733782  HIT:     397124  MISS:     336658
cpu0_STLB LOAD      ACCESS:     477628  HIT:     310092  MISS:     167536
cpu0_STLB RFO       ACCESS:     256154  HIT:      87032  MISS:     169122
cpu0_STLB PREFETCH  ACCESS:          0  HIT:          0  MISS:          0
cpu0_STLB WRITEBACK ACCESS:          0  HIT:          0  MISS:          0
cpu0_STLB TRANSLATION ACCESS:          0  HIT:          0  MISS:          0
cpu0_STLB PREFETCH  REQUESTED:          0  ISSUED:          0  USEFUL:          0  USELESS:          0
cpu0_STLB AVERAGE MISS LATENCY: 10.3726 cycles
cpu0_L1D TOTAL     ACCESS:    6842430  HIT:    4755734  MISS:    2086696
cpu0_L1D LOAD      ACCESS:    5216321  HIT:    3142051  MISS:    2074270
cpu0_L1D RFO       ACCESS:    1298816  HIT:    1287784  MISS:      11032
cpu0_L1D PREFETCH  ACCESS:          0  HIT:          0  MISS:          0
cpu0_L1D WRITEBACK ACCESS:          0  HIT:          0  MISS:          0
cpu0_L1D TRANSLATION ACCESS:     327293  HIT:     325899  MISS:       1394
cpu0_L1D PREFETCH  REQUESTED:          0  ISSUED:          0  USEFUL:          0  USELESS:          0
cpu0_L1D AVERAGE MISS LATENCY: 174.409 cycles
cpu0_L2C TOTAL     ACCESS:    3316348  HIT:     982364  MISS:    2333984
cpu0_L2C LOAD      ACCESS:    2074270  HIT:     298430  MISS:    1775840
cpu0_L2C RFO       ACCESS:      11032  HIT:         93  MISS:      10939
cpu0_L2C PREFETCH  ACCESS:     580831  HIT:      33694  MISS:     547137
cpu0_L2C WRITEBACK ACCESS:     648821  HIT:     648803  MISS:         18
cpu0_L2C TRANSLATION ACCESS:       1394  HIT:       1344  MISS:         50
cpu0_L2C PREFETCH  REQUESTED:     612396  ISSUED:     610890  USEFUL:     120880  USELESS:     441994
cpu0_L2C AVERAGE MISS LATENCY: 211.535 cycles
LLC TOTAL     ACCESS:    2973567  HIT:    1287420  MISS:    1686147
LLC LOAD      ACCESS:    1761447  HIT:     567136  MISS:    1194311
LLC RFO       ACCESS:      10939  HIT:        454  MISS:      10485
LLC PREFETCH  ACCESS:     564980  HIT:      83721  MISS:     481259
LLC WRITEBACK ACCESS:     636151  HIT:     636098  MISS:         53
LLC TRANSLATION ACCESS:         50  HIT:         11  MISS:         39
LLC PREFETCH  REQUESTED:          0  ISSUED:          0  USEFUL:          0  USELESS:          0
LLC AVERAGE MISS LATENCY: 269.087 cycles

DRAM Statistics
 CHANNEL 0
 RQ ROW_BUFFER_HIT:     215711  ROW_BUFFER_MISS:    1469634
 DBUS AVG_CONGESTED_CYCLE:    3.95351
 WQ ROW_BUFFER_HIT:       1225  ROW_BUFFER_MISS:     560294  FULL:          0


CPU 0 Branch Prediction Accuracy: 81.1279% MPKI: 35.6282 Average ROB Occupancy at Mispredict: 24.2781
Branch type MPKI
BRANCH_DIRECT_JUMP: 0
BRANCH_INDIRECT: 0
BRANCH_CONDITIONAL: 35.6282
BRANCH_DIRECT_CALL: 0
BRANCH_INDIRECT_CALL: 0
BRANCH_RETURN: 0
