
*** ChampSim Multicore Out-of-Order Simulator ***

Warmup Instructions: 25000000
Simulation Instructions: 25000000
Number of CPUs: 1
Off-chip DRAM Size: 4 GiB Channels: 1 Width: 64-bit Data Rate: 3200 MT/s

VirtualMemory physical capacity: 8588881920 num_ppages: 2096895
VirtualMemory page size: 4096 log2_page_size: 12

CPU 0 runs ../TRACES/bc-0.trace.gz
CPU 0 Bimodal branch predictor
Basic BTB sets: 1024 ways: 8 indirect buffer size: 4096 RAS size: 64
Stream Plus Stride Prefetcher with degree = 4 and distance = 16
WARNING: The extended signature CACHE::prefetch_line(ip, base_addr, pf_addr, fill_this_level, prefetch_metadata) is deprecated.
WARNING: Use CACHE::prefetch_line(pf_addr, fill_this_level, prefetch_metadata) instead.
Heartbeat CPU 0 instructions: 10000002 cycles: 3203421 heartbeat IPC: 3.12166 cumulative IPC: 3.12166 (Simulation time: 0 hr 0 min 22 sec) 
Heartbeat CPU 0 instructions: 20000000 cycles: 5712245 heartbeat IPC: 3.98593 cumulative IPC: 3.50125 (Simulation time: 0 hr 0 min 37 sec) 

Warmup complete CPU 0 instructions: 25000004 cycles: 6963678 (Simulation time: 0 hr 0 min 44 sec) 

Heartbeat CPU 0 instructions: 30000001 cycles: 41970090 heartbeat IPC: 0.275802 cumulative IPC: 0.142831 (Simulation time: 0 hr 1 min 11 sec) 
Heartbeat CPU 0 instructions: 40000002 cycles: 113584242 heartbeat IPC: 0.139637 cumulative IPC: 0.140686 (Simulation time: 0 hr 2 min 6 sec) 
Heartbeat CPU 0 instructions: 50000002 cycles: 185057212 heartbeat IPC: 0.139913 cumulative IPC: 0.140376 (Simulation time: 0 hr 3 min 2 sec) 
Finished CPU 0 instructions: 25000003 cycles: 178093535 cumulative IPC: 0.140376 (Simulation time: 0 hr 3 min 2 sec) 

ChampSim completed all CPUs

Region of Interest Statistics

CPU 0 cumulative IPC: 0.140376 instructions: 25000003 cycles: 178093535
cpu0_DTLB TOTAL     ACCESS:    5779438  HIT:    5045656  MISS:     733782
cpu0_DTLB LOAD      ACCESS:    4551577  HIT:    4073869  MISS:     477708
cpu0_DTLB RFO       ACCESS:    1227861  HIT:     971787  MISS:     256074
cpu0_DTLB PREFETCH  ACCESS:          0  HIT:          0  MISS:          0
cpu0_DTLB WRITEBACK ACCESS:          0  HIT:          0  MISS:          0
cpu0_DTLB TRANSLATION ACCESS:          0  HIT:          0  MISS:          0
cpu0_DTLB PREFETCH  REQUESTED:          0  ISSUED:          0  USEFUL:          0  USELESS:          0
cpu0_DTLB AVERAGE MISS LATENCY: 13.8523 cycles
cpu0_ITLB TOTAL     ACCESS:    3107161  HIT:    3107161  MISS:          0
cpu0_ITLB LOAD      ACCESS:    3107161  HIT:    3107161  MISS:          0
cpu0_ITLB RFO       ACCESS:          0  HIT:          0  MISS:          0
cpu0_ITLB PREFETCH  ACCESS:          0  HIT:          0  MISS:          0
cpu0_ITLB WRITEBACK ACCESS:          0  HIT:          0  MISS:          0
cpu0_ITLB TRANSLATION ACCESS:          0  HIT:          0  MISS:          0
cpu0_ITLB PREFETCH  REQUESTED:          0  ISSUED:          0  USEFUL:          0  USELESS:          0
cpu0_ITLB AVERAGE MISS LATENCY: -nan cycles
cpu0_L1I TOTAL     ACCESS:         86  HIT:         86  MISS:          0
cpu0_L1I LOAD      ACCESS:         86  HIT:         86  MISS:          0
cpu0_L1I RFO       ACCESS:          0  HIT:          0  MISS:          0
cpu0_L1I PREFETCH  ACCESS:          0  HIT:          0  MISS:          0
cpu0_L1I WRITEBACK ACCESS:          0  HIT:          0  MISS:          0
cpu0_L1I TRANSLATION ACCESS:          0  HIT:          0  MISS:          0
cpu0_L1I PREFETCH  REQUESTED:          0  ISSUED:          0  USEFUL:          0  USELESS:          0
cpu0_L1I AVERAGE MISS LATENCY: -nan cycles
cpu0_STLB TOTAL     ACCESS:     733782  HIT:     397124  MISS:     336658
cpu0_STLB LOAD      ACCESS:     477708  HIT:     310114  MISS:     167594
cpu0_STLB RFO       ACCESS:     256074  HIT:      87010  MISS:     169064
cpu0_STLB PREFETCH  ACCESS:          0  HIT:          0  MISS:          0
cpu0_STLB WRITEBACK ACCESS:          0  HIT:          0  MISS:          0
cpu0_STLB TRANSLATION ACCESS:          0  HIT:          0  MISS:          0
cpu0_STLB PREFETCH  REQUESTED:          0  ISSUED:          0  USEFUL:          0  USELESS:          0
cpu0_STLB AVERAGE MISS LATENCY: 10.3927 cycles
cpu0_L1D TOTAL     ACCESS:    6848828  HIT:    4762133  MISS:    2086695
cpu0_L1D LOAD      ACCESS:    5222625  HIT:    3148356  MISS:    2074269
cpu0_L1D RFO       ACCESS:    1298961  HIT:    1287929  MISS:      11032
cpu0_L1D PREFETCH  ACCESS:          0  HIT:          0  MISS:          0
cpu0_L1D WRITEBACK ACCESS:          0  HIT:          0  MISS:          0
cpu0_L1D TRANSLATION ACCESS:     327242  HIT:     325848  MISS:       1394
cpu0_L1D PREFETCH  REQUESTED:          0  ISSUED:          0  USEFUL:          0  USELESS:          0
cpu0_L1D AVERAGE MISS LATENCY: 164.746 cycles
cpu0_L2C TOTAL     ACCESS:    3031612  HIT:    1054962  MISS:    1976650
cpu0_L2C LOAD      ACCESS:    2074269  HIT:     278290  MISS:    1795979
cpu0_L2C RFO       ACCESS:      11032  HIT:        117  MISS:      10915
cpu0_L2C PREFETCH  ACCESS:     296096  HIT:     126401  MISS:     169695
cpu0_L2C WRITEBACK ACCESS:     648821  HIT:     648808  MISS:         13
cpu0_L2C TRANSLATION ACCESS:       1394  HIT:       1346  MISS:         48
cpu0_L2C PREFETCH  REQUESTED:     315994  ISSUED:     310607  USEFUL:      78315  USELESS:      93204
cpu0_L2C AVERAGE MISS LATENCY: 187.048 cycles
LLC TOTAL     ACCESS:    2613242  HIT:    1260678  MISS:    1352564
LLC LOAD      ACCESS:    1794419  HIT:     610711  MISS:    1183708
LLC RFO       ACCESS:      10915  HIT:        508  MISS:      10407
LLC PREFETCH  ACCESS:     173558  HIT:      15207  MISS:     158351
LLC WRITEBACK ACCESS:     634302  HIT:     634241  MISS:         61
LLC TRANSLATION ACCESS:         48  HIT:         11  MISS:         37
LLC PREFETCH  REQUESTED:          0  ISSUED:          0  USEFUL:          0  USELESS:          0
LLC AVERAGE MISS LATENCY: 245.22 cycles

DRAM Statistics
 CHANNEL 0
 RQ ROW_BUFFER_HIT:     110916  ROW_BUFFER_MISS:    1240882
 DBUS AVG_CONGESTED_CYCLE:    3.95589
 WQ ROW_BUFFER_HIT:       1161  ROW_BUFFER_MISS:     542655  FULL:          0


CPU 0 Branch Prediction Accuracy: 81.1279% MPKI: 35.6282 Average ROB Occupancy at Mispredict: 23.3306
Branch type MPKI
BRANCH_DIRECT_JUMP: 0
BRANCH_INDIRECT: 0
BRANCH_CONDITIONAL: 35.6282
BRANCH_DIRECT_CALL: 0
BRANCH_INDIRECT_CALL: 0
BRANCH_RETURN: 0

