
*** ChampSim Multicore Out-of-Order Simulator ***

Warmup Instructions: 25000000
Simulation Instructions: 25000000
Number of CPUs: 1
Off-chip DRAM Size: 4 GiB Channels: 1 Width: 64-bit Data Rate: 3200 MT/s

VirtualMemory physical capacity: 8588881920 num_ppages: 2096895
VirtualMemory page size: 4096 log2_page_size: 12

CPU 0 runs ../TRACES/bc-0.trace.gz
CPU 0 Bimodal branch predictor
Basic BTB sets: 1024 ways: 8 indirect buffer size: 4096 RAS size: 64
Stream Plus Stride Prefetcher with degree = 4 and distance = 64
WARNING: The extended signature CACHE::prefetch_line(ip, base_addr, pf_addr, fill_this_level, prefetch_metadata) is deprecated.
WARNING: Use CACHE::prefetch_line(pf_addr, fill_this_level, prefetch_metadata) instead.
Heartbeat CPU 0 instructions: 10000002 cycles: 3203583 heartbeat IPC: 3.12151 cumulative IPC: 3.12151 (Simulation time: 0 hr 0 min 22 sec) 
Heartbeat CPU 0 instructions: 20000003 cycles: 5712410 heartbeat IPC: 3.98593 cumulative IPC: 3.50115 (Simulation time: 0 hr 0 min 37 sec) 

Warmup complete CPU 0 instructions: 25000003 cycles: 6963840 (Simulation time: 0 hr 0 min 44 sec) 

Heartbeat CPU 0 instructions: 30000001 cycles: 41565520 heartbeat IPC: 0.278916 cumulative IPC: 0.144502 (Simulation time: 0 hr 1 min 11 sec) 
Heartbeat CPU 0 instructions: 40000002 cycles: 112424270 heartbeat IPC: 0.141126 cumulative IPC: 0.142233 (Simulation time: 0 hr 2 min 5 sec) 
Heartbeat CPU 0 instructions: 50000002 cycles: 182983135 heartbeat IPC: 0.141726 cumulative IPC: 0.14203 (Simulation time: 0 hr 2 min 59 sec) 
Finished CPU 0 instructions: 25000001 cycles: 176019296 cumulative IPC: 0.14203 (Simulation time: 0 hr 2 min 59 sec) 

ChampSim completed all CPUs

Region of Interest Statistics

CPU 0 cumulative IPC: 0.14203 instructions: 25000001 cycles: 176019296
cpu0_DTLB TOTAL     ACCESS:    5778699  HIT:    5044917  MISS:     733782
cpu0_DTLB LOAD      ACCESS:    4550684  HIT:    4073149  MISS:     477535
cpu0_DTLB RFO       ACCESS:    1228015  HIT:     971768  MISS:     256247
cpu0_DTLB PREFETCH  ACCESS:          0  HIT:          0  MISS:          0
cpu0_DTLB WRITEBACK ACCESS:          0  HIT:          0  MISS:          0
cpu0_DTLB TRANSLATION ACCESS:          0  HIT:          0  MISS:          0
cpu0_DTLB PREFETCH  REQUESTED:          0  ISSUED:          0  USEFUL:          0  USELESS:          0
cpu0_DTLB AVERAGE MISS LATENCY: 13.8884 cycles
cpu0_ITLB TOTAL     ACCESS:    3107161  HIT:    3107161  MISS:          0
cpu0_ITLB LOAD      ACCESS:    3107161  HIT:    3107161  MISS:          0
cpu0_ITLB RFO       ACCESS:          0  HIT:          0  MISS:          0
cpu0_ITLB PREFETCH  ACCESS:          0  HIT:          0  MISS:          0
cpu0_ITLB WRITEBACK ACCESS:          0  HIT:          0  MISS:          0
cpu0_ITLB TRANSLATION ACCESS:          0  HIT:          0  MISS:          0
cpu0_ITLB PREFETCH  REQUESTED:          0  ISSUED:          0  USEFUL:          0  USELESS:          0
cpu0_ITLB AVERAGE MISS LATENCY: -nan cycles
cpu0_L1I TOTAL     ACCESS:         86  HIT:         86  MISS:          0
cpu0_L1I LOAD      ACCESS:         86  HIT:         86  MISS:          0
cpu0_L1I RFO       ACCESS:          0  HIT:          0  MISS:          0
cpu0_L1I PREFETCH  ACCESS:          0  HIT:          0  MISS:          0
cpu0_L1I WRITEBACK ACCESS:          0  HIT:          0  MISS:          0
cpu0_L1I TRANSLATION ACCESS:          0  HIT:          0  MISS:          0
cpu0_L1I PREFETCH  REQUESTED:          0  ISSUED:          0  USEFUL:          0  USELESS:          0
cpu0_L1I AVERAGE MISS LATENCY: -nan cycles
cpu0_STLB TOTAL     ACCESS:     733782  HIT:     397124  MISS:     336658
cpu0_STLB LOAD      ACCESS:     477535  HIT:     310062  MISS:     167473
cpu0_STLB RFO       ACCESS:     256247  HIT:      87062  MISS:     169185
cpu0_STLB PREFETCH  ACCESS:          0  HIT:          0  MISS:          0
cpu0_STLB WRITEBACK ACCESS:          0  HIT:          0  MISS:          0
cpu0_STLB TRANSLATION ACCESS:          0  HIT:          0  MISS:          0
cpu0_STLB PREFETCH  REQUESTED:          0  ISSUED:          0  USEFUL:          0  USELESS:          0
cpu0_STLB AVERAGE MISS LATENCY: 10.4722 cycles
cpu0_L1D TOTAL     ACCESS:    6851830  HIT:    4765134  MISS:    2086696
cpu0_L1D LOAD      ACCESS:    5225315  HIT:    3151045  MISS:    2074270
cpu0_L1D RFO       ACCESS:    1299174  HIT:    1288142  MISS:      11032
cpu0_L1D PREFETCH  ACCESS:          0  HIT:          0  MISS:          0
cpu0_L1D WRITEBACK ACCESS:          0  HIT:          0  MISS:          0
cpu0_L1D TRANSLATION ACCESS:     327341  HIT:     325947  MISS:       1394
cpu0_L1D PREFETCH  REQUESTED:          0  ISSUED:          0  USEFUL:          0  USELESS:          0
cpu0_L1D AVERAGE MISS LATENCY: 166.82 cycles
cpu0_L2C TOTAL     ACCESS:    2982029  HIT:     947816  MISS:    2034213
cpu0_L2C LOAD      ACCESS:    2074270  HIT:     294002  MISS:    1780268
cpu0_L2C RFO       ACCESS:      11032  HIT:        114  MISS:      10918
cpu0_L2C PREFETCH  ACCESS:     246511  HIT:       3544  MISS:     242967
cpu0_L2C WRITEBACK ACCESS:     648822  HIT:     648809  MISS:         13
cpu0_L2C TRANSLATION ACCESS:       1394  HIT:       1347  MISS:         47
cpu0_L2C PREFETCH  REQUESTED:     261665  ISSUED:     258880  USEFUL:      80140  USELESS:     164142
cpu0_L2C AVERAGE MISS LATENCY: 196.823 cycles
LLC TOTAL     ACCESS:    2675067  HIT:    1248492  MISS:    1426575
LLC LOAD      ACCESS:    1779108  HIT:     598618  MISS:    1180490
LLC RFO       ACCESS:      10918  HIT:        487  MISS:      10431
LLC PREFETCH  ACCESS:     250120  HIT:      14574  MISS:     235546
LLC WRITEBACK ACCESS:     634874  HIT:     634803  MISS:         71
LLC TRANSLATION ACCESS:         47  HIT:         10  MISS:         37
LLC PREFETCH  REQUESTED:          0  ISSUED:          0  USEFUL:          0  USELESS:          0
LLC AVERAGE MISS LATENCY: 257.955 cycles

DRAM Statistics
 CHANNEL 0
 RQ ROW_BUFFER_HIT:     135300  ROW_BUFFER_MISS:    1290509
 DBUS AVG_CONGESTED_CYCLE:    3.95797
 WQ ROW_BUFFER_HIT:       1202  ROW_BUFFER_MISS:     546623  FULL:          0


CPU 0 Branch Prediction Accuracy: 81.1279% MPKI: 35.6282 Average ROB Occupancy at Mispredict: 23.5853
Branch type MPKI
BRANCH_DIRECT_JUMP: 0
BRANCH_INDIRECT: 0
BRANCH_CONDITIONAL: 35.6282
BRANCH_DIRECT_CALL: 0
BRANCH_INDIRECT_CALL: 0
BRANCH_RETURN: 0

