*** ChampSim Multicore Out-of-Order Simulator ***

Warmup Instructions: 25000000
Simulation Instructions: 25000000
Number of CPUs: 1
Off-chip DRAM Size: 4 GiB Channels: 1 Width: 64-bit Data Rate: 3200 MT/s

VirtualMemory physical capacity: 8588881920 num_ppages: 2096895
VirtualMemory page size: 4096 log2_page_size: 12

CPU 0 runs ../TRACES/bc-0.trace.gz
CPU 0 Bimodal branch predictor
Basic BTB sets: 1024 ways: 8 indirect buffer size: 4096 RAS size: 64
Stream Prefetcher with degree = 4 and distance = 64
WARNING: The extended signature CACHE::prefetch_line(ip, base_addr, pf_addr, fill_this_level, prefetch_metadata) is deprecated.
WARNING: Use CACHE::prefetch_line(pf_addr, fill_this_level, prefetch_metadata) instead.
Heartbeat CPU 0 instructions: 10000002 cycles: 3203693 heartbeat IPC: 3.1214 cumulative IPC: 3.1214 (Simulation time: 0 hr 0 min 21 sec) 
Heartbeat CPU 0 instructions: 20000002 cycles: 5712516 heartbeat IPC: 3.98593 cumulative IPC: 3.50108 (Simulation time: 0 hr 0 min 37 sec) 

Warmup complete CPU 0 instructions: 25000003 cycles: 6963948 (Simulation time: 0 hr 0 min 44 sec) 

Heartbeat CPU 0 instructions: 30000001 cycles: 43773345 heartbeat IPC: 0.262737 cumulative IPC: 0.135835 (Simulation time: 0 hr 1 min 13 sec) 
Heartbeat CPU 0 instructions: 40000002 cycles: 118025132 heartbeat IPC: 0.134677 cumulative IPC: 0.135061 (Simulation time: 0 hr 2 min 12 sec) 
Heartbeat CPU 0 instructions: 50000002 cycles: 192692497 heartbeat IPC: 0.133927 cumulative IPC: 0.134605 (Simulation time: 0 hr 3 min 11 sec) 
Finished CPU 0 instructions: 25000004 cycles: 185728550 cumulative IPC: 0.134605 (Simulation time: 0 hr 3 min 11 sec) 

ChampSim completed all CPUs

Region of Interest Statistics

CPU 0 cumulative IPC: 0.134605 instructions: 25000004 cycles: 185728550
cpu0_DTLB TOTAL     ACCESS:    5772559  HIT:    5038778  MISS:     733781
cpu0_DTLB LOAD      ACCESS:    4544890  HIT:    4067418  MISS:     477472
cpu0_DTLB RFO       ACCESS:    1227669  HIT:     971360  MISS:     256309
cpu0_DTLB PREFETCH  ACCESS:          0  HIT:          0  MISS:          0
cpu0_DTLB WRITEBACK ACCESS:          0  HIT:          0  MISS:          0
cpu0_DTLB TRANSLATION ACCESS:          0  HIT:          0  MISS:          0
cpu0_DTLB PREFETCH  REQUESTED:          0  ISSUED:          0  USEFUL:          0  USELESS:          0
cpu0_DTLB AVERAGE MISS LATENCY: 13.8647 cycles
cpu0_ITLB TOTAL     ACCESS:    3107161  HIT:    3107161  MISS:          0
cpu0_ITLB LOAD      ACCESS:    3107161  HIT:    3107161  MISS:          0
cpu0_ITLB RFO       ACCESS:          0  HIT:          0  MISS:          0
cpu0_ITLB PREFETCH  ACCESS:          0  HIT:          0  MISS:          0
cpu0_ITLB WRITEBACK ACCESS:          0  HIT:          0  MISS:          0
cpu0_ITLB TRANSLATION ACCESS:          0  HIT:          0  MISS:          0
cpu0_ITLB PREFETCH  REQUESTED:          0  ISSUED:          0  USEFUL:          0  USELESS:          0
cpu0_ITLB AVERAGE MISS LATENCY: -nan cycles
cpu0_L1I TOTAL     ACCESS:         86  HIT:         86  MISS:          0
cpu0_L1I LOAD      ACCESS:         86  HIT:         86  MISS:          0
cpu0_L1I RFO       ACCESS:          0  HIT:          0  MISS:          0
cpu0_L1I PREFETCH  ACCESS:          0  HIT:          0  MISS:          0
cpu0_L1I WRITEBACK ACCESS:          0  HIT:          0  MISS:          0
cpu0_L1I TRANSLATION ACCESS:          0  HIT:          0  MISS:          0
cpu0_L1I PREFETCH  REQUESTED:          0  ISSUED:          0  USEFUL:          0  USELESS:          0
cpu0_L1I AVERAGE MISS LATENCY: -nan cycles
cpu0_STLB TOTAL     ACCESS:     733781  HIT:     397123  MISS:     336658
cpu0_STLB LOAD      ACCESS:     477472  HIT:     310042  MISS:     167430
cpu0_STLB RFO       ACCESS:     256309  HIT:      87081  MISS:     169228
cpu0_STLB PREFETCH  ACCESS:          0  HIT:          0  MISS:          0
cpu0_STLB WRITEBACK ACCESS:          0  HIT:          0  MISS:          0
cpu0_STLB TRANSLATION ACCESS:          0  HIT:          0  MISS:          0
cpu0_STLB PREFETCH  REQUESTED:          0  ISSUED:          0  USEFUL:          0  USELESS:          0
cpu0_STLB AVERAGE MISS LATENCY: 10.421 cycles
cpu0_L1D TOTAL     ACCESS:    6836971  HIT:    4750273  MISS:    2086698
cpu0_L1D LOAD      ACCESS:    5210800  HIT:    3136528  MISS:    2074272
cpu0_L1D RFO       ACCESS:    1298782  HIT:    1287750  MISS:      11032
cpu0_L1D PREFETCH  ACCESS:          0  HIT:          0  MISS:          0
cpu0_L1D WRITEBACK ACCESS:          0  HIT:          0  MISS:          0
cpu0_L1D TRANSLATION ACCESS:     327389  HIT:     325995  MISS:       1394
cpu0_L1D PREFETCH  REQUESTED:          0  ISSUED:          0  USEFUL:          0  USELESS:          0
cpu0_L1D AVERAGE MISS LATENCY: 184.672 cycles
cpu0_L2C TOTAL     ACCESS:    3787648  HIT:     997202  MISS:    2790446
cpu0_L2C LOAD      ACCESS:    2074272  HIT:     333845  MISS:    1740427
cpu0_L2C RFO       ACCESS:      11032  HIT:         76  MISS:      10956
cpu0_L2C PREFETCH  ACCESS:    1052125  HIT:      13180  MISS:    1038945
cpu0_L2C WRITEBACK ACCESS:     648825  HIT:     648762  MISS:         63
cpu0_L2C TRANSLATION ACCESS:       1394  HIT:       1339  MISS:         55
cpu0_L2C PREFETCH  REQUESTED:    1121476  ISSUED:    1119851  USEFUL:     186872  USELESS:     879394
cpu0_L2C AVERAGE MISS LATENCY: 249.875 cycles
LLC TOTAL     ACCESS:    3454244  HIT:    1292875  MISS:    2161369
LLC LOAD      ACCESS:    1715235  HIT:     512588  MISS:    1202647
LLC RFO       ACCESS:      10956  HIT:        403  MISS:      10553
LLC PREFETCH  ACCESS:    1090126  HIT:     142044  MISS:     948082
LLC WRITEBACK ACCESS:     637872  HIT:     637830  MISS:         42
LLC TRANSLATION ACCESS:         55  HIT:         10  MISS:         45
LLC PREFETCH  REQUESTED:          0  ISSUED:          0  USEFUL:          0  USELESS:          0
LLC AVERAGE MISS LATENCY: 312.665 cycles

DRAM Statistics
 CHANNEL 0
 RQ ROW_BUFFER_HIT:     411801  ROW_BUFFER_MISS:    1748707
 DBUS AVG_CONGESTED_CYCLE:    3.95132
 WQ ROW_BUFFER_HIT:       1575  ROW_BUFFER_MISS:     576119  FULL:          0


CPU 0 Branch Prediction Accuracy: 81.1279% MPKI: 35.6282 Average ROB Occupancy at Mispredict: 25.8401
Branch type MPKI
BRANCH_DIRECT_JUMP: 0
BRANCH_INDIRECT: 0
BRANCH_CONDITIONAL: 35.6282
BRANCH_DIRECT_CALL: 0
BRANCH_INDIRECT_CALL: 0
BRANCH_RETURN: 0
