
*** ChampSim Multicore Out-of-Order Simulator ***

Warmup Instructions: 25000000
Simulation Instructions: 25000000
Number of CPUs: 1
Off-chip DRAM Size: 4 GiB Channels: 1 Width: 64-bit Data Rate: 3200 MT/s

VirtualMemory physical capacity: 8588881920 num_ppages: 2096895
VirtualMemory page size: 4096 log2_page_size: 12

CPU 0 runs /home/abhishekjagushte/Labs/COA/ass2/traces/bc-0.trace.gz
CPU 0 Bimodal branch predictor
Basic BTB sets: 1024 ways: 8 indirect buffer size: 4096 RAS size: 64
cpu0_L2C IP-based stride prefetcher
WARNING: The extended signature CACHE::prefetch_line(ip, base_addr, pf_addr, fill_this_level, prefetch_metadata) is deprecated.
WARNING: Use CACHE::prefetch_line(pf_addr, fill_this_level, prefetch_metadata) instead.
Heartbeat CPU 0 instructions: 10000002 cycles: 3203422 heartbeat IPC: 3.12166 cumulative IPC: 3.12166 (Simulation time: 0 hr 0 min 18 sec) 
Heartbeat CPU 0 instructions: 20000002 cycles: 5712246 heartbeat IPC: 3.98593 cumulative IPC: 3.50125 (Simulation time: 0 hr 0 min 31 sec) 

Warmup complete CPU 0 instructions: 25000001 cycles: 6963676 (Simulation time: 0 hr 0 min 37 sec) 

Heartbeat CPU 0 instructions: 30000001 cycles: 40173293 heartbeat IPC: 0.290183 cumulative IPC: 0.150559 (Simulation time: 0 hr 0 min 56 sec) 
Heartbeat CPU 0 instructions: 40000002 cycles: 108430704 heartbeat IPC: 0.146504 cumulative IPC: 0.147831 (Simulation time: 0 hr 1 min 32 sec) 
Heartbeat CPU 0 instructions: 50000002 cycles: 176502902 heartbeat IPC: 0.146903 cumulative IPC: 0.147459 (Simulation time: 0 hr 2 min 8 sec) 
Finished CPU 0 instructions: 25000001 cycles: 169539226 cumulative IPC: 0.147458 (Simulation time: 0 hr 2 min 8 sec) 

ChampSim completed all CPUs

Region of Interest Statistics

CPU 0 cumulative IPC: 0.147458 instructions: 25000001 cycles: 169539226
cpu0_DTLB TOTAL     ACCESS:    5776210  HIT:    5042428  MISS:     733782
cpu0_DTLB LOAD      ACCESS:    4548903  HIT:    4071715  MISS:     477188
cpu0_DTLB RFO       ACCESS:    1227307  HIT:     970713  MISS:     256594
cpu0_DTLB PREFETCH  ACCESS:          0  HIT:          0  MISS:          0
cpu0_DTLB WRITEBACK ACCESS:          0  HIT:          0  MISS:          0
cpu0_DTLB TRANSLATION ACCESS:          0  HIT:          0  MISS:          0
cpu0_DTLB PREFETCH  REQUESTED:          0  ISSUED:          0  USEFUL:          0  USELESS:          0
cpu0_DTLB AVERAGE MISS LATENCY: 13.8788 cycles
cpu0_ITLB TOTAL     ACCESS:    3107160  HIT:    3107160  MISS:          0
cpu0_ITLB LOAD      ACCESS:    3107160  HIT:    3107160  MISS:          0
cpu0_ITLB RFO       ACCESS:          0  HIT:          0  MISS:          0
cpu0_ITLB PREFETCH  ACCESS:          0  HIT:          0  MISS:          0
cpu0_ITLB WRITEBACK ACCESS:          0  HIT:          0  MISS:          0
cpu0_ITLB TRANSLATION ACCESS:          0  HIT:          0  MISS:          0
cpu0_ITLB PREFETCH  REQUESTED:          0  ISSUED:          0  USEFUL:          0  USELESS:          0
cpu0_ITLB AVERAGE MISS LATENCY: -nan cycles
cpu0_L1I TOTAL     ACCESS:         86  HIT:         86  MISS:          0
cpu0_L1I LOAD      ACCESS:         86  HIT:         86  MISS:          0
cpu0_L1I RFO       ACCESS:          0  HIT:          0  MISS:          0
cpu0_L1I PREFETCH  ACCESS:          0  HIT:          0  MISS:          0
cpu0_L1I WRITEBACK ACCESS:          0  HIT:          0  MISS:          0
cpu0_L1I TRANSLATION ACCESS:          0  HIT:          0  MISS:          0
cpu0_L1I PREFETCH  REQUESTED:          0  ISSUED:          0  USEFUL:          0  USELESS:          0
cpu0_L1I AVERAGE MISS LATENCY: -nan cycles
cpu0_STLB TOTAL     ACCESS:     733782  HIT:     397124  MISS:     336658
cpu0_STLB LOAD      ACCESS:     477188  HIT:     309935  MISS:     167253
cpu0_STLB RFO       ACCESS:     256594  HIT:      87189  MISS:     169405
cpu0_STLB PREFETCH  ACCESS:          0  HIT:          0  MISS:          0
cpu0_STLB WRITEBACK ACCESS:          0  HIT:          0  MISS:          0
cpu0_STLB TRANSLATION ACCESS:          0  HIT:          0  MISS:          0
cpu0_STLB PREFETCH  REQUESTED:          0  ISSUED:          0  USEFUL:          0  USELESS:          0
cpu0_STLB AVERAGE MISS LATENCY: 10.4547 cycles
cpu0_L1D TOTAL     ACCESS:    6856405  HIT:    4769708  MISS:    2086697
cpu0_L1D LOAD      ACCESS:    5229661  HIT:    3155390  MISS:    2074271
cpu0_L1D RFO       ACCESS:    1299192  HIT:    1288160  MISS:      11032
cpu0_L1D PREFETCH  ACCESS:          0  HIT:          0  MISS:          0
cpu0_L1D WRITEBACK ACCESS:          0  HIT:          0  MISS:          0
cpu0_L1D TRANSLATION ACCESS:     327552  HIT:     326158  MISS:       1394
cpu0_L1D PREFETCH  REQUESTED:          0  ISSUED:          0  USEFUL:          0  USELESS:          0
cpu0_L1D AVERAGE MISS LATENCY: 161.03 cycles
cpu0_L2C TOTAL     ACCESS:    3027406  HIT:    1074065  MISS:    1953341
cpu0_L2C LOAD      ACCESS:    2074271  HIT:     327563  MISS:    1746708
cpu0_L2C RFO       ACCESS:      11032  HIT:        123  MISS:      10909
cpu0_L2C PREFETCH  ACCESS:     291887  HIT:      96224  MISS:     195663
cpu0_L2C WRITEBACK ACCESS:     648822  HIT:     648809  MISS:         13
cpu0_L2C TRANSLATION ACCESS:       1394  HIT:       1346  MISS:         48
cpu0_L2C PREFETCH  REQUESTED:     316586  ISSUED:     311606  USEFUL:     115865  USELESS:      86939
cpu0_L2C AVERAGE MISS LATENCY: 183.563 cycles
LLC TOTAL     ACCESS:    2587769  HIT:    1276358  MISS:    1311411
LLC LOAD      ACCESS:    1739860  HIT:     621075  MISS:    1118785
LLC RFO       ACCESS:      10909  HIT:        527  MISS:      10382
LLC PREFETCH  ACCESS:     202718  HIT:      20581  MISS:     182137
LLC WRITEBACK ACCESS:     634234  HIT:     634164  MISS:         70
LLC TRANSLATION ACCESS:         48  HIT:         11  MISS:         37
LLC PREFETCH  REQUESTED:          0  ISSUED:          0  USEFUL:          0  USELESS:          0
LLC AVERAGE MISS LATENCY: 243.983 cycles

DRAM Statistics
 CHANNEL 0
 RQ ROW_BUFFER_HIT:      79940  ROW_BUFFER_MISS:    1230726
 DBUS AVG_CONGESTED_CYCLE:    3.95877
 WQ ROW_BUFFER_HIT:       1154  ROW_BUFFER_MISS:     540589  FULL:          0


CPU 0 Branch Prediction Accuracy: 81.1279% MPKI: 35.6282 Average ROB Occupancy at Mispredict: 24.1305
Branch type MPKI
BRANCH_DIRECT_JUMP: 0
BRANCH_INDIRECT: 0
BRANCH_CONDITIONAL: 35.6282
BRANCH_DIRECT_CALL: 0
BRANCH_INDIRECT_CALL: 0
BRANCH_RETURN: 0

