*** ChampSim Multicore Out-of-Order Simulator ***

Warmup Instructions: 25000000
Simulation Instructions: 25000000
Number of CPUs: 1
Off-chip DRAM Size: 4 GiB Channels: 1 Width: 64-bit Data Rate: 3200 MT/s

VirtualMemory physical capacity: 8588881920 num_ppages: 2096895
VirtualMemory page size: 4096 log2_page_size: 12

CPU 0 runs ../TRACES/bc-0.trace.gz
CPU 0 Bimodal branch predictor
Basic BTB sets: 1024 ways: 8 indirect buffer size: 4096 RAS size: 64
Stream Prefetcher with degree = 4 and distance = 16
WARNING: The extended signature CACHE::prefetch_line(ip, base_addr, pf_addr, fill_this_level, prefetch_metadata) is deprecated.
WARNING: Use CACHE::prefetch_line(pf_addr, fill_this_level, prefetch_metadata) instead.
Heartbeat CPU 0 instructions: 10000002 cycles: 3203422 heartbeat IPC: 3.12166 cumulative IPC: 3.12166 (Simulation time: 0 hr 0 min 26 sec) 
Heartbeat CPU 0 instructions: 20000002 cycles: 5712247 heartbeat IPC: 3.98593 cumulative IPC: 3.50125 (Simulation time: 0 hr 0 min 41 sec) 

Warmup complete CPU 0 instructions: 25000003 cycles: 6963679 (Simulation time: 0 hr 0 min 48 sec) 

Heartbeat CPU 0 instructions: 30000001 cycles: 43974341 heartbeat IPC: 0.261355 cumulative IPC: 0.135096 (Simulation time: 0 hr 1 min 16 sec) 
Heartbeat CPU 0 instructions: 40000002 cycles: 118703306 heartbeat IPC: 0.133817 cumulative IPC: 0.134241 (Simulation time: 0 hr 2 min 14 sec) 
Heartbeat CPU 0 instructions: 50000002 cycles: 193819991 heartbeat IPC: 0.133126 cumulative IPC: 0.133793 (Simulation time: 0 hr 3 min 11 sec) 
Finished CPU 0 instructions: 25000004 cycles: 186856313 cumulative IPC: 0.133793 (Simulation time: 0 hr 3 min 11 sec) 

ChampSim completed all CPUs

Region of Interest Statistics

CPU 0 cumulative IPC: 0.133793 instructions: 25000004 cycles: 186856313
cpu0_DTLB TOTAL     ACCESS:    5774218  HIT:    5040437  MISS:     733781
cpu0_DTLB LOAD      ACCESS:    4546416  HIT:    4068811  MISS:     477605
cpu0_DTLB RFO       ACCESS:    1227802  HIT:     971626  MISS:     256176
cpu0_DTLB PREFETCH  ACCESS:          0  HIT:          0  MISS:          0
cpu0_DTLB WRITEBACK ACCESS:          0  HIT:          0  MISS:          0
cpu0_DTLB TRANSLATION ACCESS:          0  HIT:          0  MISS:          0
cpu0_DTLB PREFETCH  REQUESTED:          0  ISSUED:          0  USEFUL:          0  USELESS:          0
cpu0_DTLB AVERAGE MISS LATENCY: 13.8185 cycles
cpu0_ITLB TOTAL     ACCESS:    3107165  HIT:    3107165  MISS:          0
cpu0_ITLB LOAD      ACCESS:    3107165  HIT:    3107165  MISS:          0
cpu0_ITLB RFO       ACCESS:          0  HIT:          0  MISS:          0
cpu0_ITLB PREFETCH  ACCESS:          0  HIT:          0  MISS:          0
cpu0_ITLB WRITEBACK ACCESS:          0  HIT:          0  MISS:          0
cpu0_ITLB TRANSLATION ACCESS:          0  HIT:          0  MISS:          0
cpu0_ITLB PREFETCH  REQUESTED:          0  ISSUED:          0  USEFUL:          0  USELESS:          0
cpu0_ITLB AVERAGE MISS LATENCY: -nan cycles
cpu0_L1I TOTAL     ACCESS:         86  HIT:         86  MISS:          0
cpu0_L1I LOAD      ACCESS:         86  HIT:         86  MISS:          0
cpu0_L1I RFO       ACCESS:          0  HIT:          0  MISS:          0
cpu0_L1I PREFETCH  ACCESS:          0  HIT:          0  MISS:          0
cpu0_L1I WRITEBACK ACCESS:          0  HIT:          0  MISS:          0
cpu0_L1I TRANSLATION ACCESS:          0  HIT:          0  MISS:          0
cpu0_L1I PREFETCH  REQUESTED:          0  ISSUED:          0  USEFUL:          0  USELESS:          0
cpu0_L1I AVERAGE MISS LATENCY: -nan cycles
cpu0_STLB TOTAL     ACCESS:     733781  HIT:     397123  MISS:     336658
cpu0_STLB LOAD      ACCESS:     477605  HIT:     310084  MISS:     167521
cpu0_STLB RFO       ACCESS:     256176  HIT:      87039  MISS:     169137
cpu0_STLB PREFETCH  ACCESS:          0  HIT:          0  MISS:          0
cpu0_STLB WRITEBACK ACCESS:          0  HIT:          0  MISS:          0
cpu0_STLB TRANSLATION ACCESS:          0  HIT:          0  MISS:          0
cpu0_STLB PREFETCH  REQUESTED:          0  ISSUED:          0  USEFUL:          0  USELESS:          0
cpu0_STLB AVERAGE MISS LATENCY: 10.3197 cycles
cpu0_L1D TOTAL     ACCESS:    6838337  HIT:    4751638  MISS:    2086699
cpu0_L1D LOAD      ACCESS:    5212290  HIT:    3138017  MISS:    2074273
cpu0_L1D RFO       ACCESS:    1298746  HIT:    1287714  MISS:      11032
cpu0_L1D PREFETCH  ACCESS:          0  HIT:          0  MISS:          0
cpu0_L1D WRITEBACK ACCESS:          0  HIT:          0  MISS:          0
cpu0_L1D TRANSLATION ACCESS:     327301  HIT:     325907  MISS:       1394
cpu0_L1D PREFETCH  REQUESTED:          0  ISSUED:          0  USEFUL:          0  USELESS:          0
cpu0_L1D AVERAGE MISS LATENCY: 181.346 cycles
cpu0_L2C TOTAL     ACCESS:    3784205  HIT:    1094437  MISS:    2689768
cpu0_L2C LOAD      ACCESS:    2074273  HIT:     311980  MISS:    1762293
cpu0_L2C RFO       ACCESS:      11032  HIT:         84  MISS:      10948
cpu0_L2C PREFETCH  ACCESS:    1048685  HIT:     132255  MISS:     916430
cpu0_L2C WRITEBACK ACCESS:     648821  HIT:     648776  MISS:         45
cpu0_L2C TRANSLATION ACCESS:       1394  HIT:       1342  MISS:         52
cpu0_L2C PREFETCH  REQUESTED:    1152854  ISSUED:    1134516  USEFUL:     184096  USELESS:     756149
cpu0_L2C AVERAGE MISS LATENCY: 235.751 cycles
LLC TOTAL     ACCESS:    3338541  HIT:    1303163  MISS:    2035378
LLC LOAD      ACCESS:    1740514  HIT:     525525  MISS:    1214989
LLC RFO       ACCESS:      10948  HIT:        414  MISS:      10534
LLC PREFETCH  ACCESS:     949465  HIT:     139696  MISS:     809769
LLC WRITEBACK ACCESS:     637562  HIT:     637518  MISS:         44
LLC TRANSLATION ACCESS:         52  HIT:         10  MISS:         42
LLC PREFETCH  REQUESTED:          0  ISSUED:          0  USEFUL:          0  USELESS:          0
LLC AVERAGE MISS LATENCY: 293.238 cycles

DRAM Statistics
 CHANNEL 0
 RQ ROW_BUFFER_HIT:     341214  ROW_BUFFER_MISS:    1693331
 DBUS AVG_CONGESTED_CYCLE:    3.95022
 WQ ROW_BUFFER_HIT:       1368  ROW_BUFFER_MISS:     573143  FULL:          0


CPU 0 Branch Prediction Accuracy: 81.1279% MPKI: 35.6282 Average ROB Occupancy at Mispredict: 24.8401
Branch type MPKI
BRANCH_DIRECT_JUMP: 0
BRANCH_INDIRECT: 0
BRANCH_CONDITIONAL: 35.6282
BRANCH_DIRECT_CALL: 0
BRANCH_INDIRECT_CALL: 0
BRANCH_RETURN: 0
