*** ChampSim Multicore Out-of-Order Simulator ***

Warmup Instructions: 25000000
Simulation Instructions: 25000000
Number of CPUs: 1
Off-chip DRAM Size: 4 GiB Channels: 1 Width: 64-bit Data Rate: 3200 MT/s

VirtualMemory physical capacity: 8588881920 num_ppages: 2096895
VirtualMemory page size: 4096 log2_page_size: 12

CPU 0 runs ../TRACES/sssp-3.trace.gz
CPU 0 Bimodal branch predictor
Basic BTB sets: 1024 ways: 8 indirect buffer size: 4096 RAS size: 64
Stream Prefetcher with degree = 4 and distance = 16
WARNING: The extended signature CACHE::prefetch_line(ip, base_addr, pf_addr, fill_this_level, prefetch_metadata) is deprecated.
WARNING: Use CACHE::prefetch_line(pf_addr, fill_this_level, prefetch_metadata) instead.
Heartbeat CPU 0 instructions: 10000002 cycles: 2980420 heartbeat IPC: 3.35523 cumulative IPC: 3.35523 (Simulation time: 0 hr 0 min 22 sec) 
Heartbeat CPU 0 instructions: 20000001 cycles: 6362358 heartbeat IPC: 2.95688 cumulative IPC: 3.14349 (Simulation time: 0 hr 0 min 43 sec) 

Warmup complete CPU 0 instructions: 25000004 cycles: 8126938 (Simulation time: 0 hr 0 min 53 sec) 

Heartbeat CPU 0 instructions: 30000002 cycles: 24986802 heartbeat IPC: 0.536929 cumulative IPC: 0.296562 (Simulation time: 0 hr 1 min 11 sec) 
Heartbeat CPU 0 instructions: 40000001 cycles: 59276469 heartbeat IPC: 0.291633 cumulative IPC: 0.293258 (Simulation time: 0 hr 1 min 48 sec) 
Heartbeat CPU 0 instructions: 50000002 cycles: 92023247 heartbeat IPC: 0.305374 cumulative IPC: 0.297987 (Simulation time: 0 hr 2 min 27 sec) 
Finished CPU 0 instructions: 25000000 cycles: 83896327 cumulative IPC: 0.297987 (Simulation time: 0 hr 2 min 27 sec) 

ChampSim completed all CPUs

Region of Interest Statistics

CPU 0 cumulative IPC: 0.297987 instructions: 25000000 cycles: 83896327
cpu0_DTLB TOTAL     ACCESS:    6310653  HIT:    5873077  MISS:     437576
cpu0_DTLB LOAD      ACCESS:    5885956  HIT:    5605658  MISS:     280298
cpu0_DTLB RFO       ACCESS:     424697  HIT:     267419  MISS:     157278
cpu0_DTLB PREFETCH  ACCESS:          0  HIT:          0  MISS:          0
cpu0_DTLB WRITEBACK ACCESS:          0  HIT:          0  MISS:          0
cpu0_DTLB TRANSLATION ACCESS:          0  HIT:          0  MISS:          0
cpu0_DTLB PREFETCH  REQUESTED:          0  ISSUED:          0  USEFUL:          0  USELESS:          0
cpu0_DTLB AVERAGE MISS LATENCY: 11.2983 cycles
cpu0_ITLB TOTAL     ACCESS:    2383497  HIT:    2383497  MISS:          0
cpu0_ITLB LOAD      ACCESS:    2383497  HIT:    2383497  MISS:          0
cpu0_ITLB RFO       ACCESS:          0  HIT:          0  MISS:          0
cpu0_ITLB PREFETCH  ACCESS:          0  HIT:          0  MISS:          0
cpu0_ITLB WRITEBACK ACCESS:          0  HIT:          0  MISS:          0
cpu0_ITLB TRANSLATION ACCESS:          0  HIT:          0  MISS:          0
cpu0_ITLB PREFETCH  REQUESTED:          0  ISSUED:          0  USEFUL:          0  USELESS:          0
cpu0_ITLB AVERAGE MISS LATENCY: -nan cycles
cpu0_L1I TOTAL     ACCESS:      10709  HIT:      10709  MISS:          0
cpu0_L1I LOAD      ACCESS:      10709  HIT:      10709  MISS:          0
cpu0_L1I RFO       ACCESS:          0  HIT:          0  MISS:          0
cpu0_L1I PREFETCH  ACCESS:          0  HIT:          0  MISS:          0
cpu0_L1I WRITEBACK ACCESS:          0  HIT:          0  MISS:          0
cpu0_L1I TRANSLATION ACCESS:          0  HIT:          0  MISS:          0
cpu0_L1I PREFETCH  REQUESTED:          0  ISSUED:          0  USEFUL:          0  USELESS:          0
cpu0_L1I AVERAGE MISS LATENCY: -nan cycles
cpu0_STLB TOTAL     ACCESS:     437576  HIT:     432146  MISS:       5430
cpu0_STLB LOAD      ACCESS:     280298  HIT:     275611  MISS:       4687
cpu0_STLB RFO       ACCESS:     157278  HIT:     156535  MISS:        743
cpu0_STLB PREFETCH  ACCESS:          0  HIT:          0  MISS:          0
cpu0_STLB WRITEBACK ACCESS:          0  HIT:          0  MISS:          0
cpu0_STLB TRANSLATION ACCESS:          0  HIT:          0  MISS:          0
cpu0_STLB PREFETCH  REQUESTED:          0  ISSUED:          0  USEFUL:          0  USELESS:          0
cpu0_STLB AVERAGE MISS LATENCY: 177.33 cycles
cpu0_L1D TOTAL     ACCESS:    6369341  HIT:    5127149  MISS:    1242192
cpu0_L1D LOAD      ACCESS:    5734002  HIT:    4608207  MISS:    1125795
cpu0_L1D RFO       ACCESS:     629935  HIT:     515490  MISS:     114445
cpu0_L1D PREFETCH  ACCESS:          0  HIT:          0  MISS:          0
cpu0_L1D WRITEBACK ACCESS:          0  HIT:          0  MISS:          0
cpu0_L1D TRANSLATION ACCESS:       5404  HIT:       3452  MISS:       1952
cpu0_L1D PREFETCH  REQUESTED:          0  ISSUED:          0  USEFUL:          0  USELESS:          0
cpu0_L1D AVERAGE MISS LATENCY: 124.588 cycles
cpu0_L2C TOTAL     ACCESS:    2252314  HIT:     865300  MISS:    1387014
cpu0_L2C LOAD      ACCESS:    1125784  HIT:     291463  MISS:     834321
cpu0_L2C RFO       ACCESS:     114438  HIT:      75052  MISS:      39386
cpu0_L2C PREFETCH  ACCESS:     662061  HIT:     151725  MISS:     510336
cpu0_L2C WRITEBACK ACCESS:     348079  HIT:     345637  MISS:       2442
cpu0_L2C TRANSLATION ACCESS:       1952  HIT:       1423  MISS:        529
cpu0_L2C PREFETCH  REQUESTED:     745710  ISSUED:     724901  USEFUL:     163983  USELESS:     355124
cpu0_L2C AVERAGE MISS LATENCY: 186.103 cycles
LLC TOTAL     ACCESS:    1640540  HIT:     687653  MISS:     952887
LLC LOAD      ACCESS:     825548  HIT:     333745  MISS:     491803
LLC RFO       ACCESS:      39386  HIT:      12690  MISS:      26696
LLC PREFETCH  ACCESS:     533757  HIT:     102239  MISS:     431518
LLC WRITEBACK ACCESS:     241320  HIT:     238725  MISS:       2595
LLC TRANSLATION ACCESS:        529  HIT:        254  MISS:        275
LLC PREFETCH  REQUESTED:          0  ISSUED:          0  USEFUL:          0  USELESS:          0
LLC AVERAGE MISS LATENCY: 252.122 cycles

DRAM Statistics
 CHANNEL 0
 RQ ROW_BUFFER_HIT:     236914  ROW_BUFFER_MISS:     712868
 DBUS AVG_CONGESTED_CYCLE:    3.93942
 WQ ROW_BUFFER_HIT:      28131  ROW_BUFFER_MISS:     186542  FULL:          0


CPU 0 Branch Prediction Accuracy: 91.1986% MPKI: 12.9566 Average ROB Occupancy at Mispredict: 52.2638
Branch type MPKI
BRANCH_DIRECT_JUMP: 0
BRANCH_INDIRECT: 0
BRANCH_CONDITIONAL: 12.9566
BRANCH_DIRECT_CALL: 0
BRANCH_INDIRECT_CALL: 0
BRANCH_RETURN: 0
