*** ChampSim Multicore Out-of-Order Simulator ***

Warmup Instructions: 25000000
Simulation Instructions: 25000000
Number of CPUs: 1
Off-chip DRAM Size: 4 GiB Channels: 1 Width: 64-bit Data Rate: 3200 MT/s

VirtualMemory physical capacity: 8588881920 num_ppages: 2096895
VirtualMemory page size: 4096 log2_page_size: 12

CPU 0 runs ../TRACES/sssp-3.trace.gz
CPU 0 Bimodal branch predictor
Basic BTB sets: 1024 ways: 8 indirect buffer size: 4096 RAS size: 64
Stream Prefetcher with degree = 2 and distance = 16
WARNING: The extended signature CACHE::prefetch_line(ip, base_addr, pf_addr, fill_this_level, prefetch_metadata) is deprecated.
WARNING: Use CACHE::prefetch_line(pf_addr, fill_this_level, prefetch_metadata) instead.
Heartbeat CPU 0 instructions: 10000002 cycles: 2980421 heartbeat IPC: 3.35523 cumulative IPC: 3.35523 (Simulation time: 0 hr 0 min 18 sec) 
Heartbeat CPU 0 instructions: 20000001 cycles: 6362368 heartbeat IPC: 2.95688 cumulative IPC: 3.14348 (Simulation time: 0 hr 0 min 40 sec) 

Warmup complete CPU 0 instructions: 25000004 cycles: 8126949 (Simulation time: 0 hr 0 min 51 sec) 

Heartbeat CPU 0 instructions: 30000002 cycles: 24773057 heartbeat IPC: 0.543163 cumulative IPC: 0.30037 (Simulation time: 0 hr 1 min 9 sec) 
Heartbeat CPU 0 instructions: 40000001 cycles: 58726077 heartbeat IPC: 0.294525 cumulative IPC: 0.296448 (Simulation time: 0 hr 1 min 46 sec) 
Heartbeat CPU 0 instructions: 50000002 cycles: 91342667 heartbeat IPC: 0.306592 cumulative IPC: 0.300424 (Simulation time: 0 hr 2 min 24 sec) 
Finished CPU 0 instructions: 25000000 cycles: 83215736 cumulative IPC: 0.300424 (Simulation time: 0 hr 2 min 24 sec) 

ChampSim completed all CPUs

Region of Interest Statistics

CPU 0 cumulative IPC: 0.300424 instructions: 25000000 cycles: 83215736
cpu0_DTLB TOTAL     ACCESS:    6310040  HIT:    5872461  MISS:     437579
cpu0_DTLB LOAD      ACCESS:    5885358  HIT:    5605069  MISS:     280289
cpu0_DTLB RFO       ACCESS:     424682  HIT:     267392  MISS:     157290
cpu0_DTLB PREFETCH  ACCESS:          0  HIT:          0  MISS:          0
cpu0_DTLB WRITEBACK ACCESS:          0  HIT:          0  MISS:          0
cpu0_DTLB TRANSLATION ACCESS:          0  HIT:          0  MISS:          0
cpu0_DTLB PREFETCH  REQUESTED:          0  ISSUED:          0  USEFUL:          0  USELESS:          0
cpu0_DTLB AVERAGE MISS LATENCY: 11.3202 cycles
cpu0_ITLB TOTAL     ACCESS:    2383546  HIT:    2383546  MISS:          0
cpu0_ITLB LOAD      ACCESS:    2383546  HIT:    2383546  MISS:          0
cpu0_ITLB RFO       ACCESS:          0  HIT:          0  MISS:          0
cpu0_ITLB PREFETCH  ACCESS:          0  HIT:          0  MISS:          0
cpu0_ITLB WRITEBACK ACCESS:          0  HIT:          0  MISS:          0
cpu0_ITLB TRANSLATION ACCESS:          0  HIT:          0  MISS:          0
cpu0_ITLB PREFETCH  REQUESTED:          0  ISSUED:          0  USEFUL:          0  USELESS:          0
cpu0_ITLB AVERAGE MISS LATENCY: -nan cycles
cpu0_L1I TOTAL     ACCESS:      10708  HIT:      10708  MISS:          0
cpu0_L1I LOAD      ACCESS:      10708  HIT:      10708  MISS:          0
cpu0_L1I RFO       ACCESS:          0  HIT:          0  MISS:          0
cpu0_L1I PREFETCH  ACCESS:          0  HIT:          0  MISS:          0
cpu0_L1I WRITEBACK ACCESS:          0  HIT:          0  MISS:          0
cpu0_L1I TRANSLATION ACCESS:          0  HIT:          0  MISS:          0
cpu0_L1I PREFETCH  REQUESTED:          0  ISSUED:          0  USEFUL:          0  USELESS:          0
cpu0_L1I AVERAGE MISS LATENCY: -nan cycles
cpu0_STLB TOTAL     ACCESS:     437579  HIT:     432149  MISS:       5430
cpu0_STLB LOAD      ACCESS:     280289  HIT:     275601  MISS:       4688
cpu0_STLB RFO       ACCESS:     157290  HIT:     156548  MISS:        742
cpu0_STLB PREFETCH  ACCESS:          0  HIT:          0  MISS:          0
cpu0_STLB WRITEBACK ACCESS:          0  HIT:          0  MISS:          0
cpu0_STLB TRANSLATION ACCESS:          0  HIT:          0  MISS:          0
cpu0_STLB PREFETCH  REQUESTED:          0  ISSUED:          0  USEFUL:          0  USELESS:          0
cpu0_STLB AVERAGE MISS LATENCY: 179.073 cycles
cpu0_L1D TOTAL     ACCESS:    6362855  HIT:    5120668  MISS:    1242187
cpu0_L1D LOAD      ACCESS:    5727590  HIT:    4601801  MISS:    1125789
cpu0_L1D RFO       ACCESS:     629861  HIT:     515413  MISS:     114448
cpu0_L1D PREFETCH  ACCESS:          0  HIT:          0  MISS:          0
cpu0_L1D WRITEBACK ACCESS:          0  HIT:          0  MISS:          0
cpu0_L1D TRANSLATION ACCESS:       5404  HIT:       3454  MISS:       1950
cpu0_L1D PREFETCH  REQUESTED:          0  ISSUED:          0  USEFUL:          0  USELESS:          0
cpu0_L1D AVERAGE MISS LATENCY: 122.407 cycles
cpu0_L2C TOTAL     ACCESS:    1968257  HIT:     746235  MISS:    1222022
cpu0_L2C LOAD      ACCESS:    1125782  HIT:     285098  MISS:     840684
cpu0_L2C RFO       ACCESS:     114441  HIT:      76929  MISS:      37512
cpu0_L2C PREFETCH  ACCESS:     378005  HIT:      36626  MISS:     341379
cpu0_L2C WRITEBACK ACCESS:     348079  HIT:     346134  MISS:       1945
cpu0_L2C TRANSLATION ACCESS:       1950  HIT:       1448  MISS:        502
cpu0_L2C PREFETCH  REQUESTED:     407150  ISSUED:     405471  USEFUL:     122178  USELESS:     225802
cpu0_L2C AVERAGE MISS LATENCY: 174.031 cycles
LLC TOTAL     ACCESS:    1463002  HIT:     660943  MISS:     802059
LLC LOAD      ACCESS:     834058  HIT:     351810  MISS:     482248
LLC RFO       ACCESS:      37511  HIT:      11304  MISS:      26207
LLC PREFETCH  ACCESS:     352537  HIT:      61448  MISS:     291089
LLC WRITEBACK ACCESS:     238394  HIT:     236133  MISS:       2261
LLC TRANSLATION ACCESS:        502  HIT:        248  MISS:        254
LLC PREFETCH  REQUESTED:          0  ISSUED:          0  USEFUL:          0  USELESS:          0
LLC AVERAGE MISS LATENCY: 238.918 cycles

DRAM Statistics
 CHANNEL 0
 RQ ROW_BUFFER_HIT:     184607  ROW_BUFFER_MISS:     614786
 DBUS AVG_CONGESTED_CYCLE:    3.94037
 WQ ROW_BUFFER_HIT:      32406  ROW_BUFFER_MISS:     178482  FULL:          0


CPU 0 Branch Prediction Accuracy: 91.1986% MPKI: 12.9566 Average ROB Occupancy at Mispredict: 52.2615
Branch type MPKI
BRANCH_DIRECT_JUMP: 0
BRANCH_INDIRECT: 0
BRANCH_CONDITIONAL: 12.9566
BRANCH_DIRECT_CALL: 0
BRANCH_INDIRECT_CALL: 0
BRANCH_RETURN: 0
