
*** ChampSim Multicore Out-of-Order Simulator ***

Warmup Instructions: 25000000
Simulation Instructions: 25000000
Number of CPUs: 1
Off-chip DRAM Size: 4 GiB Channels: 1 Width: 64-bit Data Rate: 3200 MT/s

VirtualMemory physical capacity: 8588881920 num_ppages: 2096895
VirtualMemory page size: 4096 log2_page_size: 12

CPU 0 runs /home/abhishekjagushte/Labs/COA/ass2/traces/sssp-3.trace.gz
CPU 0 Bimodal branch predictor
Basic BTB sets: 1024 ways: 8 indirect buffer size: 4096 RAS size: 64
cpu0_L2C IP-based stride prefetcher
WARNING: The extended signature CACHE::prefetch_line(ip, base_addr, pf_addr, fill_this_level, prefetch_metadata) is deprecated.
WARNING: Use CACHE::prefetch_line(pf_addr, fill_this_level, prefetch_metadata) instead.
Heartbeat CPU 0 instructions: 10000002 cycles: 2980390 heartbeat IPC: 3.35527 cumulative IPC: 3.35527 (Simulation time: 0 hr 0 min 18 sec) 
Heartbeat CPU 0 instructions: 20000001 cycles: 6362330 heartbeat IPC: 2.95688 cumulative IPC: 3.1435 (Simulation time: 0 hr 0 min 38 sec) 

Warmup complete CPU 0 instructions: 25000004 cycles: 8126911 (Simulation time: 0 hr 0 min 48 sec) 

Heartbeat CPU 0 instructions: 30000002 cycles: 23189888 heartbeat IPC: 0.594263 cumulative IPC: 0.33194 (Simulation time: 0 hr 1 min 3 sec) 
Heartbeat CPU 0 instructions: 40000001 cycles: 54148023 heartbeat IPC: 0.323017 cumulative IPC: 0.325937 (Simulation time: 0 hr 1 min 33 sec) 
Heartbeat CPU 0 instructions: 50000002 cycles: 83889705 heartbeat IPC: 0.336228 cumulative IPC: 0.329977 (Simulation time: 0 hr 2 min 6 sec) 
Finished CPU 0 instructions: 25000000 cycles: 75762812 cumulative IPC: 0.329977 (Simulation time: 0 hr 2 min 6 sec) 

ChampSim completed all CPUs

Region of Interest Statistics

CPU 0 cumulative IPC: 0.329977 instructions: 25000000 cycles: 75762812
cpu0_DTLB TOTAL     ACCESS:    6304063  HIT:    5866496  MISS:     437567
cpu0_DTLB LOAD      ACCESS:    5879511  HIT:    5599145  MISS:     280366
cpu0_DTLB RFO       ACCESS:     424552  HIT:     267351  MISS:     157201
cpu0_DTLB PREFETCH  ACCESS:          0  HIT:          0  MISS:          0
cpu0_DTLB WRITEBACK ACCESS:          0  HIT:          0  MISS:          0
cpu0_DTLB TRANSLATION ACCESS:          0  HIT:          0  MISS:          0
cpu0_DTLB PREFETCH  REQUESTED:          0  ISSUED:          0  USEFUL:          0  USELESS:          0
cpu0_DTLB AVERAGE MISS LATENCY: 11.3186 cycles
cpu0_ITLB TOTAL     ACCESS:    2383687  HIT:    2383687  MISS:          0
cpu0_ITLB LOAD      ACCESS:    2383687  HIT:    2383687  MISS:          0
cpu0_ITLB RFO       ACCESS:          0  HIT:          0  MISS:          0
cpu0_ITLB PREFETCH  ACCESS:          0  HIT:          0  MISS:          0
cpu0_ITLB WRITEBACK ACCESS:          0  HIT:          0  MISS:          0
cpu0_ITLB TRANSLATION ACCESS:          0  HIT:          0  MISS:          0
cpu0_ITLB PREFETCH  REQUESTED:          0  ISSUED:          0  USEFUL:          0  USELESS:          0
cpu0_ITLB AVERAGE MISS LATENCY: -nan cycles
cpu0_L1I TOTAL     ACCESS:      10711  HIT:      10711  MISS:          0
cpu0_L1I LOAD      ACCESS:      10711  HIT:      10711  MISS:          0
cpu0_L1I RFO       ACCESS:          0  HIT:          0  MISS:          0
cpu0_L1I PREFETCH  ACCESS:          0  HIT:          0  MISS:          0
cpu0_L1I WRITEBACK ACCESS:          0  HIT:          0  MISS:          0
cpu0_L1I TRANSLATION ACCESS:          0  HIT:          0  MISS:          0
cpu0_L1I PREFETCH  REQUESTED:          0  ISSUED:          0  USEFUL:          0  USELESS:          0
cpu0_L1I AVERAGE MISS LATENCY: -nan cycles
cpu0_STLB TOTAL     ACCESS:     437567  HIT:     432137  MISS:       5430
cpu0_STLB LOAD      ACCESS:     280366  HIT:     275679  MISS:       4687
cpu0_STLB RFO       ACCESS:     157201  HIT:     156458  MISS:        743
cpu0_STLB PREFETCH  ACCESS:          0  HIT:          0  MISS:          0
cpu0_STLB WRITEBACK ACCESS:          0  HIT:          0  MISS:          0
cpu0_STLB TRANSLATION ACCESS:          0  HIT:          0  MISS:          0
cpu0_STLB PREFETCH  REQUESTED:          0  ISSUED:          0  USEFUL:          0  USELESS:          0
cpu0_STLB AVERAGE MISS LATENCY: 177.944 cycles
cpu0_L1D TOTAL     ACCESS:    6523506  HIT:    5281314  MISS:    1242192
cpu0_L1D LOAD      ACCESS:    5888378  HIT:    4762585  MISS:    1125793
cpu0_L1D RFO       ACCESS:     629724  HIT:     515276  MISS:     114448
cpu0_L1D PREFETCH  ACCESS:          0  HIT:          0  MISS:          0
cpu0_L1D WRITEBACK ACCESS:          0  HIT:          0  MISS:          0
cpu0_L1D TRANSLATION ACCESS:       5404  HIT:       3453  MISS:       1951
cpu0_L1D PREFETCH  REQUESTED:          0  ISSUED:          0  USEFUL:          0  USELESS:          0
cpu0_L1D AVERAGE MISS LATENCY: 110.361 cycles
cpu0_L2C TOTAL     ACCESS:    2191122  HIT:    1109210  MISS:    1081912
cpu0_L2C LOAD      ACCESS:    1125783  HIT:     336671  MISS:     789112
cpu0_L2C RFO       ACCESS:     114439  HIT:      78357  MISS:      36082
cpu0_L2C PREFETCH  ACCESS:     600868  HIT:     346164  MISS:     254704
cpu0_L2C WRITEBACK ACCESS:     348081  HIT:     346566  MISS:       1515
cpu0_L2C TRANSLATION ACCESS:       1951  HIT:       1452  MISS:        499
cpu0_L2C PREFETCH  REQUESTED:     733317  ISSUED:     697211  USEFUL:     179557  USELESS:      95309
cpu0_L2C AVERAGE MISS LATENCY: 157.754 cycles
LLC TOTAL     ACCESS:    1318206  HIT:     646339  MISS:     671867
LLC LOAD      ACCESS:     768939  HIT:     369874  MISS:     399065
LLC RFO       ACCESS:      36082  HIT:      10359  MISS:      25723
LLC PREFETCH  ACCESS:     276858  HIT:      31938  MISS:     244920
LLC WRITEBACK ACCESS:     235828  HIT:     233906  MISS:       1922
LLC TRANSLATION ACCESS:        499  HIT:        262  MISS:        237
LLC PREFETCH  REQUESTED:          0  ISSUED:          0  USEFUL:          0  USELESS:          0
LLC AVERAGE MISS LATENCY: 232.115 cycles

DRAM Statistics
 CHANNEL 0
 RQ ROW_BUFFER_HIT:      94247  ROW_BUFFER_MISS:     575324
 DBUS AVG_CONGESTED_CYCLE:    3.94078
 WQ ROW_BUFFER_HIT:      34986  ROW_BUFFER_MISS:     171446  FULL:          0


CPU 0 Branch Prediction Accuracy: 91.1986% MPKI: 12.9566 Average ROB Occupancy at Mispredict: 52.2955
Branch type MPKI
BRANCH_DIRECT_JUMP: 0
BRANCH_INDIRECT: 0
BRANCH_CONDITIONAL: 12.9566
BRANCH_DIRECT_CALL: 0
BRANCH_INDIRECT_CALL: 0
BRANCH_RETURN: 0

