
*** ChampSim Multicore Out-of-Order Simulator ***

Warmup Instructions: 25000000
Simulation Instructions: 25000000
Number of CPUs: 1
Off-chip DRAM Size: 4 GiB Channels: 1 Width: 64-bit Data Rate: 3200 MT/s

VirtualMemory physical capacity: 8588881920 num_ppages: 2096895
VirtualMemory page size: 4096 log2_page_size: 12

CPU 0 runs /home/abhishekjagushte/Labs/COA/ass2/traces/sssp-3.trace.gz
CPU 0 Bimodal branch predictor
Basic BTB sets: 1024 ways: 8 indirect buffer size: 4096 RAS size: 64
cpu0_L2C IP-based stride prefetcher
WARNING: The extended signature CACHE::prefetch_line(ip, base_addr, pf_addr, fill_this_level, prefetch_metadata) is deprecated.
WARNING: Use CACHE::prefetch_line(pf_addr, fill_this_level, prefetch_metadata) instead.
Heartbeat CPU 0 instructions: 10000002 cycles: 2980403 heartbeat IPC: 3.35525 cumulative IPC: 3.35525 (Simulation time: 0 hr 0 min 15 sec) 
Heartbeat CPU 0 instructions: 20000001 cycles: 6362344 heartbeat IPC: 2.95688 cumulative IPC: 3.1435 (Simulation time: 0 hr 0 min 34 sec) 

Warmup complete CPU 0 instructions: 25000004 cycles: 8126924 (Simulation time: 0 hr 0 min 44 sec) 

Heartbeat CPU 0 instructions: 30000002 cycles: 23162319 heartbeat IPC: 0.595239 cumulative IPC: 0.332548 (Simulation time: 0 hr 0 min 59 sec) 
Heartbeat CPU 0 instructions: 40000001 cycles: 54088508 heartbeat IPC: 0.323351 cumulative IPC: 0.326359 (Simulation time: 0 hr 1 min 29 sec) 
Heartbeat CPU 0 instructions: 50000002 cycles: 83947947 heartbeat IPC: 0.334902 cumulative IPC: 0.329724 (Simulation time: 0 hr 2 min 0 sec) 
Finished CPU 0 instructions: 25000000 cycles: 75821041 cumulative IPC: 0.329724 (Simulation time: 0 hr 2 min 0 sec) 

ChampSim completed all CPUs

Region of Interest Statistics

CPU 0 cumulative IPC: 0.329724 instructions: 25000000 cycles: 75821041
cpu0_DTLB TOTAL     ACCESS:    6304136  HIT:    5866570  MISS:     437566
cpu0_DTLB LOAD      ACCESS:    5879618  HIT:    5599250  MISS:     280368
cpu0_DTLB RFO       ACCESS:     424518  HIT:     267320  MISS:     157198
cpu0_DTLB PREFETCH  ACCESS:          0  HIT:          0  MISS:          0
cpu0_DTLB WRITEBACK ACCESS:          0  HIT:          0  MISS:          0
cpu0_DTLB TRANSLATION ACCESS:          0  HIT:          0  MISS:          0
cpu0_DTLB PREFETCH  REQUESTED:          0  ISSUED:          0  USEFUL:          0  USELESS:          0
cpu0_DTLB AVERAGE MISS LATENCY: 11.3475 cycles
cpu0_ITLB TOTAL     ACCESS:    2383713  HIT:    2383713  MISS:          0
cpu0_ITLB LOAD      ACCESS:    2383713  HIT:    2383713  MISS:          0
cpu0_ITLB RFO       ACCESS:          0  HIT:          0  MISS:          0
cpu0_ITLB PREFETCH  ACCESS:          0  HIT:          0  MISS:          0
cpu0_ITLB WRITEBACK ACCESS:          0  HIT:          0  MISS:          0
cpu0_ITLB TRANSLATION ACCESS:          0  HIT:          0  MISS:          0
cpu0_ITLB PREFETCH  REQUESTED:          0  ISSUED:          0  USEFUL:          0  USELESS:          0
cpu0_ITLB AVERAGE MISS LATENCY: -nan cycles
cpu0_L1I TOTAL     ACCESS:      10707  HIT:      10707  MISS:          0
cpu0_L1I LOAD      ACCESS:      10707  HIT:      10707  MISS:          0
cpu0_L1I RFO       ACCESS:          0  HIT:          0  MISS:          0
cpu0_L1I PREFETCH  ACCESS:          0  HIT:          0  MISS:          0
cpu0_L1I WRITEBACK ACCESS:          0  HIT:          0  MISS:          0
cpu0_L1I TRANSLATION ACCESS:          0  HIT:          0  MISS:          0
cpu0_L1I PREFETCH  REQUESTED:          0  ISSUED:          0  USEFUL:          0  USELESS:          0
cpu0_L1I AVERAGE MISS LATENCY: -nan cycles
cpu0_STLB TOTAL     ACCESS:     437566  HIT:     432136  MISS:       5430
cpu0_STLB LOAD      ACCESS:     280368  HIT:     275680  MISS:       4688
cpu0_STLB RFO       ACCESS:     157198  HIT:     156456  MISS:        742
cpu0_STLB PREFETCH  ACCESS:          0  HIT:          0  MISS:          0
cpu0_STLB WRITEBACK ACCESS:          0  HIT:          0  MISS:          0
cpu0_STLB TRANSLATION ACCESS:          0  HIT:          0  MISS:          0
cpu0_STLB PREFETCH  REQUESTED:          0  ISSUED:          0  USEFUL:          0  USELESS:          0
cpu0_STLB AVERAGE MISS LATENCY: 180.277 cycles
cpu0_L1D TOTAL     ACCESS:    6523321  HIT:    5281136  MISS:    1242185
cpu0_L1D LOAD      ACCESS:    5888209  HIT:    4762421  MISS:    1125788
cpu0_L1D RFO       ACCESS:     629707  HIT:     515260  MISS:     114447
cpu0_L1D PREFETCH  ACCESS:          0  HIT:          0  MISS:          0
cpu0_L1D WRITEBACK ACCESS:          0  HIT:          0  MISS:          0
cpu0_L1D TRANSLATION ACCESS:       5405  HIT:       3455  MISS:       1950
cpu0_L1D PREFETCH  REQUESTED:          0  ISSUED:          0  USEFUL:          0  USELESS:          0
cpu0_L1D AVERAGE MISS LATENCY: 109.847 cycles
cpu0_L2C TOTAL     ACCESS:    2042328  HIT:     983541  MISS:    1058787
cpu0_L2C LOAD      ACCESS:    1125780  HIT:     331354  MISS:     794426
cpu0_L2C RFO       ACCESS:     114440  HIT:      78591  MISS:      35849
cpu0_L2C PREFETCH  ACCESS:     452080  HIT:     225520  MISS:     226560
cpu0_L2C WRITEBACK ACCESS:     348078  HIT:     346621  MISS:       1457
cpu0_L2C TRANSLATION ACCESS:       1950  HIT:       1455  MISS:        495
cpu0_L2C PREFETCH  REQUESTED:     559499  ISSUED:     534143  USEFUL:     166092  USELESS:      77820
cpu0_L2C AVERAGE MISS LATENCY: 154.463 cycles
LLC TOTAL     ACCESS:    1293997  HIT:     644597  MISS:     649400
LLC LOAD      ACCESS:     777065  HIT:     374815  MISS:     402250
LLC RFO       ACCESS:      35849  HIT:      10155  MISS:      25694
LLC PREFETCH  ACCESS:     245125  HIT:      25788  MISS:     219337
LLC WRITEBACK ACCESS:     235463  HIT:     233574  MISS:       1889
LLC TRANSLATION ACCESS:        495  HIT:        265  MISS:        230
LLC PREFETCH  REQUESTED:          0  ISSUED:          0  USEFUL:          0  USELESS:          0
LLC AVERAGE MISS LATENCY: 226.115 cycles

DRAM Statistics
 CHANNEL 0
 RQ ROW_BUFFER_HIT:      81251  ROW_BUFFER_MISS:     565858
 DBUS AVG_CONGESTED_CYCLE:    3.94267
 WQ ROW_BUFFER_HIT:      35403  ROW_BUFFER_MISS:     170114  FULL:          0


CPU 0 Branch Prediction Accuracy: 91.1986% MPKI: 12.9566 Average ROB Occupancy at Mispredict: 52.2951
Branch type MPKI
BRANCH_DIRECT_JUMP: 0
BRANCH_INDIRECT: 0
BRANCH_CONDITIONAL: 12.9566
BRANCH_DIRECT_CALL: 0
BRANCH_INDIRECT_CALL: 0
BRANCH_RETURN: 0

