
*** ChampSim Multicore Out-of-Order Simulator ***

Warmup Instructions: 25000000
Simulation Instructions: 25000000
Number of CPUs: 1
Off-chip DRAM Size: 4 GiB Channels: 1 Width: 64-bit Data Rate: 3200 MT/s

VirtualMemory physical capacity: 8588881920 num_ppages: 2096895
VirtualMemory page size: 4096 log2_page_size: 12

CPU 0 runs ../TRACES/sssp-3.trace.gz
CPU 0 Bimodal branch predictor
Basic BTB sets: 1024 ways: 8 indirect buffer size: 4096 RAS size: 64
Stream Plus Stride Prefetcher with degree = 2 and distance = 16
WARNING: The extended signature CACHE::prefetch_line(ip, base_addr, pf_addr, fill_this_level, prefetch_metadata) is deprecated.
WARNING: Use CACHE::prefetch_line(pf_addr, fill_this_level, prefetch_metadata) instead.
Heartbeat CPU 0 instructions: 10000002 cycles: 2980404 heartbeat IPC: 3.35525 cumulative IPC: 3.35525 (Simulation time: 0 hr 0 min 18 sec) 
Heartbeat CPU 0 instructions: 20000001 cycles: 6362351 heartbeat IPC: 2.95688 cumulative IPC: 3.14349 (Simulation time: 0 hr 0 min 40 sec) 

Warmup complete CPU 0 instructions: 25000004 cycles: 8126932 (Simulation time: 0 hr 0 min 51 sec) 

Heartbeat CPU 0 instructions: 30000002 cycles: 24410486 heartbeat IPC: 0.554074 cumulative IPC: 0.307058 (Simulation time: 0 hr 1 min 8 sec) 
Heartbeat CPU 0 instructions: 40000001 cycles: 57479648 heartbeat IPC: 0.302397 cumulative IPC: 0.303935 (Simulation time: 0 hr 1 min 44 sec) 
Heartbeat CPU 0 instructions: 50000002 cycles: 89859236 heartbeat IPC: 0.308837 cumulative IPC: 0.305877 (Simulation time: 0 hr 2 min 22 sec) 
Finished CPU 0 instructions: 25000000 cycles: 81732322 cumulative IPC: 0.305877 (Simulation time: 0 hr 2 min 22 sec) 

ChampSim completed all CPUs

Region of Interest Statistics

CPU 0 cumulative IPC: 0.305877 instructions: 25000000 cycles: 81732322
cpu0_DTLB TOTAL     ACCESS:    6309499  HIT:    5871925  MISS:     437574
cpu0_DTLB LOAD      ACCESS:    5884846  HIT:    5604601  MISS:     280245
cpu0_DTLB RFO       ACCESS:     424653  HIT:     267324  MISS:     157329
cpu0_DTLB PREFETCH  ACCESS:          0  HIT:          0  MISS:          0
cpu0_DTLB WRITEBACK ACCESS:          0  HIT:          0  MISS:          0
cpu0_DTLB TRANSLATION ACCESS:          0  HIT:          0  MISS:          0
cpu0_DTLB PREFETCH  REQUESTED:          0  ISSUED:          0  USEFUL:          0  USELESS:          0
cpu0_DTLB AVERAGE MISS LATENCY: 11.3021 cycles
cpu0_ITLB TOTAL     ACCESS:    2383536  HIT:    2383536  MISS:          0
cpu0_ITLB LOAD      ACCESS:    2383536  HIT:    2383536  MISS:          0
cpu0_ITLB RFO       ACCESS:          0  HIT:          0  MISS:          0
cpu0_ITLB PREFETCH  ACCESS:          0  HIT:          0  MISS:          0
cpu0_ITLB WRITEBACK ACCESS:          0  HIT:          0  MISS:          0
cpu0_ITLB TRANSLATION ACCESS:          0  HIT:          0  MISS:          0
cpu0_ITLB PREFETCH  REQUESTED:          0  ISSUED:          0  USEFUL:          0  USELESS:          0
cpu0_ITLB AVERAGE MISS LATENCY: -nan cycles
cpu0_L1I TOTAL     ACCESS:      10713  HIT:      10713  MISS:          0
cpu0_L1I LOAD      ACCESS:      10713  HIT:      10713  MISS:          0
cpu0_L1I RFO       ACCESS:          0  HIT:          0  MISS:          0
cpu0_L1I PREFETCH  ACCESS:          0  HIT:          0  MISS:          0
cpu0_L1I WRITEBACK ACCESS:          0  HIT:          0  MISS:          0
cpu0_L1I TRANSLATION ACCESS:          0  HIT:          0  MISS:          0
cpu0_L1I PREFETCH  REQUESTED:          0  ISSUED:          0  USEFUL:          0  USELESS:          0
cpu0_L1I AVERAGE MISS LATENCY: -nan cycles
cpu0_STLB TOTAL     ACCESS:     437574  HIT:     432144  MISS:       5430
cpu0_STLB LOAD      ACCESS:     280245  HIT:     275558  MISS:       4687
cpu0_STLB RFO       ACCESS:     157329  HIT:     156586  MISS:        743
cpu0_STLB PREFETCH  ACCESS:          0  HIT:          0  MISS:          0
cpu0_STLB WRITEBACK ACCESS:          0  HIT:          0  MISS:          0
cpu0_STLB TRANSLATION ACCESS:          0  HIT:          0  MISS:          0
cpu0_STLB PREFETCH  REQUESTED:          0  ISSUED:          0  USEFUL:          0  USELESS:          0
cpu0_STLB AVERAGE MISS LATENCY: 177.707 cycles
cpu0_L1D TOTAL     ACCESS:    6344409  HIT:    5102227  MISS:    1242182
cpu0_L1D LOAD      ACCESS:    5709071  HIT:    4583287  MISS:    1125784
cpu0_L1D RFO       ACCESS:     629935  HIT:     515487  MISS:     114448
cpu0_L1D PREFETCH  ACCESS:          0  HIT:          0  MISS:          0
cpu0_L1D WRITEBACK ACCESS:          0  HIT:          0  MISS:          0
cpu0_L1D TRANSLATION ACCESS:       5403  HIT:       3453  MISS:       1950
cpu0_L1D PREFETCH  REQUESTED:          0  ISSUED:          0  USEFUL:          0  USELESS:          0
cpu0_L1D AVERAGE MISS LATENCY: 115.898 cycles
cpu0_L2C TOTAL     ACCESS:    1745141  HIT:     726317  MISS:    1018824
cpu0_L2C LOAD      ACCESS:    1125778  HIT:     264722  MISS:     861056
cpu0_L2C RFO       ACCESS:     114443  HIT:      78993  MISS:      35450
cpu0_L2C PREFETCH  ACCESS:     154895  HIT:      34410  MISS:     120485
cpu0_L2C WRITEBACK ACCESS:     348075  HIT:     346730  MISS:       1345
cpu0_L2C TRANSLATION ACCESS:       1950  HIT:       1462  MISS:        488
cpu0_L2C PREFETCH  REQUESTED:     166372  ISSUED:     164831  USEFUL:      77060  USELESS:      44841
cpu0_L2C AVERAGE MISS LATENCY: 153.221 cycles
LLC TOTAL     ACCESS:    1253038  HIT:     630558  MISS:     622480
LLC LOAD      ACCESS:     859655  HIT:     377698  MISS:     481957
LLC RFO       ACCESS:      35449  HIT:       9857  MISS:      25592
LLC PREFETCH  ACCESS:     122636  HIT:       9681  MISS:     112955
LLC WRITEBACK ACCESS:     234810  HIT:     233057  MISS:       1753
LLC TRANSLATION ACCESS:        488  HIT:        265  MISS:        223
LLC PREFETCH  REQUESTED:          0  ISSUED:          0  USEFUL:          0  USELESS:          0
LLC AVERAGE MISS LATENCY: 217.765 cycles

DRAM Statistics
 CHANNEL 0
 RQ ROW_BUFFER_HIT:     121565  ROW_BUFFER_MISS:     498917
 DBUS AVG_CONGESTED_CYCLE:    3.93421
 WQ ROW_BUFFER_HIT:      49086  ROW_BUFFER_MISS:     154923  FULL:          0


CPU 0 Branch Prediction Accuracy: 91.1986% MPKI: 12.9566 Average ROB Occupancy at Mispredict: 52.2715
Branch type MPKI
BRANCH_DIRECT_JUMP: 0
BRANCH_INDIRECT: 0
BRANCH_CONDITIONAL: 12.9566
BRANCH_DIRECT_CALL: 0
BRANCH_INDIRECT_CALL: 0
BRANCH_RETURN: 0

