*** ChampSim Multicore Out-of-Order Simulator ***

Warmup Instructions: 25000000
Simulation Instructions: 25000000
Number of CPUs: 1
Off-chip DRAM Size: 4 GiB Channels: 1 Width: 64-bit Data Rate: 3200 MT/s

VirtualMemory physical capacity: 8588881920 num_ppages: 2096895
VirtualMemory page size: 4096 log2_page_size: 12

CPU 0 runs ../TRACES/sssp-3.trace.gz
CPU 0 Bimodal branch predictor
Basic BTB sets: 1024 ways: 8 indirect buffer size: 4096 RAS size: 64
Stream Prefetcher with degree = 4 and distance = 64
WARNING: The extended signature CACHE::prefetch_line(ip, base_addr, pf_addr, fill_this_level, prefetch_metadata) is deprecated.
WARNING: Use CACHE::prefetch_line(pf_addr, fill_this_level, prefetch_metadata) instead.
Heartbeat CPU 0 instructions: 10000002 cycles: 2980408 heartbeat IPC: 3.35525 cumulative IPC: 3.35525 (Simulation time: 0 hr 0 min 18 sec) 
Heartbeat CPU 0 instructions: 20000001 cycles: 6362346 heartbeat IPC: 2.95688 cumulative IPC: 3.14349 (Simulation time: 0 hr 0 min 39 sec) 

Warmup complete CPU 0 instructions: 25000004 cycles: 8126927 (Simulation time: 0 hr 0 min 49 sec) 

Heartbeat CPU 0 instructions: 30000002 cycles: 24637962 heartbeat IPC: 0.547177 cumulative IPC: 0.302828 (Simulation time: 0 hr 1 min 7 sec) 
Heartbeat CPU 0 instructions: 40000001 cycles: 57980727 heartbeat IPC: 0.299915 cumulative IPC: 0.30088 (Simulation time: 0 hr 1 min 43 sec) 
Heartbeat CPU 0 instructions: 50000002 cycles: 89715261 heartbeat IPC: 0.315114 cumulative IPC: 0.306416 (Simulation time: 0 hr 2 min 22 sec) 
Finished CPU 0 instructions: 25000000 cycles: 81588352 cumulative IPC: 0.306416 (Simulation time: 0 hr 2 min 22 sec) 

ChampSim completed all CPUs

Region of Interest Statistics

CPU 0 cumulative IPC: 0.306416 instructions: 25000000 cycles: 81588352
cpu0_DTLB TOTAL     ACCESS:    6308491  HIT:    5870919  MISS:     437572
cpu0_DTLB LOAD      ACCESS:    5883779  HIT:    5603424  MISS:     280355
cpu0_DTLB RFO       ACCESS:     424712  HIT:     267495  MISS:     157217
cpu0_DTLB PREFETCH  ACCESS:          0  HIT:          0  MISS:          0
cpu0_DTLB WRITEBACK ACCESS:          0  HIT:          0  MISS:          0
cpu0_DTLB TRANSLATION ACCESS:          0  HIT:          0  MISS:          0
cpu0_DTLB PREFETCH  REQUESTED:          0  ISSUED:          0  USEFUL:          0  USELESS:          0
cpu0_DTLB AVERAGE MISS LATENCY: 11.3059 cycles
cpu0_ITLB TOTAL     ACCESS:    2383540  HIT:    2383540  MISS:          0
cpu0_ITLB LOAD      ACCESS:    2383540  HIT:    2383540  MISS:          0
cpu0_ITLB RFO       ACCESS:          0  HIT:          0  MISS:          0
cpu0_ITLB PREFETCH  ACCESS:          0  HIT:          0  MISS:          0
cpu0_ITLB WRITEBACK ACCESS:          0  HIT:          0  MISS:          0
cpu0_ITLB TRANSLATION ACCESS:          0  HIT:          0  MISS:          0
cpu0_ITLB PREFETCH  REQUESTED:          0  ISSUED:          0  USEFUL:          0  USELESS:          0
cpu0_ITLB AVERAGE MISS LATENCY: -nan cycles
cpu0_L1I TOTAL     ACCESS:      10711  HIT:      10711  MISS:          0
cpu0_L1I LOAD      ACCESS:      10711  HIT:      10711  MISS:          0
cpu0_L1I RFO       ACCESS:          0  HIT:          0  MISS:          0
cpu0_L1I PREFETCH  ACCESS:          0  HIT:          0  MISS:          0
cpu0_L1I WRITEBACK ACCESS:          0  HIT:          0  MISS:          0
cpu0_L1I TRANSLATION ACCESS:          0  HIT:          0  MISS:          0
cpu0_L1I PREFETCH  REQUESTED:          0  ISSUED:          0  USEFUL:          0  USELESS:          0
cpu0_L1I AVERAGE MISS LATENCY: -nan cycles
cpu0_STLB TOTAL     ACCESS:     437572  HIT:     432142  MISS:       5430
cpu0_STLB LOAD      ACCESS:     280355  HIT:     275668  MISS:       4687
cpu0_STLB RFO       ACCESS:     157217  HIT:     156474  MISS:        743
cpu0_STLB PREFETCH  ACCESS:          0  HIT:          0  MISS:          0
cpu0_STLB WRITEBACK ACCESS:          0  HIT:          0  MISS:          0
cpu0_STLB TRANSLATION ACCESS:          0  HIT:          0  MISS:          0
cpu0_STLB PREFETCH  REQUESTED:          0  ISSUED:          0  USEFUL:          0  USELESS:          0
cpu0_STLB AVERAGE MISS LATENCY: 177.672 cycles
cpu0_L1D TOTAL     ACCESS:    6444356  HIT:    5202166  MISS:    1242190
cpu0_L1D LOAD      ACCESS:    5809070  HIT:    4683275  MISS:    1125795
cpu0_L1D RFO       ACCESS:     629882  HIT:     515437  MISS:     114445
cpu0_L1D PREFETCH  ACCESS:          0  HIT:          0  MISS:          0
cpu0_L1D WRITEBACK ACCESS:          0  HIT:          0  MISS:          0
cpu0_L1D TRANSLATION ACCESS:       5404  HIT:       3454  MISS:       1950
cpu0_L1D PREFETCH  REQUESTED:          0  ISSUED:          0  USEFUL:          0  USELESS:          0
cpu0_L1D AVERAGE MISS LATENCY: 126.189 cycles
cpu0_L2C TOTAL     ACCESS:    2215959  HIT:     757037  MISS:    1458922
cpu0_L2C LOAD      ACCESS:    1125786  HIT:     326054  MISS:     799732
cpu0_L2C RFO       ACCESS:     114437  HIT:      74220  MISS:      40217
cpu0_L2C PREFETCH  ACCESS:     625707  HIT:       9962  MISS:     615745
cpu0_L2C WRITEBACK ACCESS:     348079  HIT:     345391  MISS:       2688
cpu0_L2C TRANSLATION ACCESS:       1950  HIT:       1410  MISS:        540
cpu0_L2C PREFETCH  REQUESTED:     676738  ISSUED:     676026  USEFUL:     179639  USELESS:     445546
cpu0_L2C AVERAGE MISS LATENCY: 202.291 cycles
LLC TOTAL     ACCESS:    1725883  HIT:     675181  MISS:    1050702
LLC LOAD      ACCESS:     790438  HIT:     321250  MISS:     469188
LLC RFO       ACCESS:      40217  HIT:      13167  MISS:      27050
LLC PREFETCH  ACCESS:     652174  HIT:     100835  MISS:     551339
LLC WRITEBACK ACCESS:     242514  HIT:     239670  MISS:       2844
LLC TRANSLATION ACCESS:        540  HIT:        259  MISS:        281
LLC PREFETCH  REQUESTED:          0  ISSUED:          0  USEFUL:          0  USELESS:          0
LLC AVERAGE MISS LATENCY: 272.009 cycles

DRAM Statistics
 CHANNEL 0
 RQ ROW_BUFFER_HIT:     324235  ROW_BUFFER_MISS:     723102
 DBUS AVG_CONGESTED_CYCLE:    3.94214
 WQ ROW_BUFFER_HIT:      26113  ROW_BUFFER_MISS:     190175  FULL:          0


CPU 0 Branch Prediction Accuracy: 91.1986% MPKI: 12.9566 Average ROB Occupancy at Mispredict: 52.2784
Branch type MPKI
BRANCH_DIRECT_JUMP: 0
BRANCH_INDIRECT: 0
BRANCH_CONDITIONAL: 12.9566
BRANCH_DIRECT_CALL: 0
BRANCH_INDIRECT_CALL: 0
BRANCH_RETURN: 0
