
*** ChampSim Multicore Out-of-Order Simulator ***

Warmup Instructions: 25000000
Simulation Instructions: 25000000
Number of CPUs: 1
Off-chip DRAM Size: 4 GiB Channels: 1 Width: 64-bit Data Rate: 3200 MT/s

VirtualMemory physical capacity: 8588881920 num_ppages: 2096895
VirtualMemory page size: 4096 log2_page_size: 12

CPU 0 runs /home/abhishekjagushte/Labs/COA/ass2/traces/sssp-3.trace.gz
CPU 0 Bimodal branch predictor
Basic BTB sets: 1024 ways: 8 indirect buffer size: 4096 RAS size: 64
cpu0_L2C IP-based stride prefetcher
WARNING: The extended signature CACHE::prefetch_line(ip, base_addr, pf_addr, fill_this_level, prefetch_metadata) is deprecated.
WARNING: Use CACHE::prefetch_line(pf_addr, fill_this_level, prefetch_metadata) instead.
Heartbeat CPU 0 instructions: 10000002 cycles: 2980395 heartbeat IPC: 3.35526 cumulative IPC: 3.35526 (Simulation time: 0 hr 0 min 15 sec) 
Heartbeat CPU 0 instructions: 20000001 cycles: 6362340 heartbeat IPC: 2.95688 cumulative IPC: 3.1435 (Simulation time: 0 hr 0 min 32 sec) 

Warmup complete CPU 0 instructions: 25000004 cycles: 8126921 (Simulation time: 0 hr 0 min 41 sec) 

Heartbeat CPU 0 instructions: 30000002 cycles: 23114728 heartbeat IPC: 0.59693 cumulative IPC: 0.333604 (Simulation time: 0 hr 0 min 53 sec) 
Heartbeat CPU 0 instructions: 40000001 cycles: 54068973 heartbeat IPC: 0.323057 cumulative IPC: 0.326498 (Simulation time: 0 hr 1 min 17 sec) 
Heartbeat CPU 0 instructions: 50000002 cycles: 84124472 heartbeat IPC: 0.332718 cumulative IPC: 0.328958 (Simulation time: 0 hr 1 min 44 sec) 
Finished CPU 0 instructions: 25000000 cycles: 75997569 cumulative IPC: 0.328958 (Simulation time: 0 hr 1 min 44 sec) 

ChampSim completed all CPUs

Region of Interest Statistics

CPU 0 cumulative IPC: 0.328958 instructions: 25000000 cycles: 75997569
cpu0_DTLB TOTAL     ACCESS:    6304262  HIT:    5866697  MISS:     437565
cpu0_DTLB LOAD      ACCESS:    5879777  HIT:    5599411  MISS:     280366
cpu0_DTLB RFO       ACCESS:     424485  HIT:     267286  MISS:     157199
cpu0_DTLB PREFETCH  ACCESS:          0  HIT:          0  MISS:          0
cpu0_DTLB WRITEBACK ACCESS:          0  HIT:          0  MISS:          0
cpu0_DTLB TRANSLATION ACCESS:          0  HIT:          0  MISS:          0
cpu0_DTLB PREFETCH  REQUESTED:          0  ISSUED:          0  USEFUL:          0  USELESS:          0
cpu0_DTLB AVERAGE MISS LATENCY: 11.3316 cycles
cpu0_ITLB TOTAL     ACCESS:    2383699  HIT:    2383699  MISS:          0
cpu0_ITLB LOAD      ACCESS:    2383699  HIT:    2383699  MISS:          0
cpu0_ITLB RFO       ACCESS:          0  HIT:          0  MISS:          0
cpu0_ITLB PREFETCH  ACCESS:          0  HIT:          0  MISS:          0
cpu0_ITLB WRITEBACK ACCESS:          0  HIT:          0  MISS:          0
cpu0_ITLB TRANSLATION ACCESS:          0  HIT:          0  MISS:          0
cpu0_ITLB PREFETCH  REQUESTED:          0  ISSUED:          0  USEFUL:          0  USELESS:          0
cpu0_ITLB AVERAGE MISS LATENCY: -nan cycles
cpu0_L1I TOTAL     ACCESS:      10712  HIT:      10712  MISS:          0
cpu0_L1I LOAD      ACCESS:      10712  HIT:      10712  MISS:          0
cpu0_L1I RFO       ACCESS:          0  HIT:          0  MISS:          0
cpu0_L1I PREFETCH  ACCESS:          0  HIT:          0  MISS:          0
cpu0_L1I WRITEBACK ACCESS:          0  HIT:          0  MISS:          0
cpu0_L1I TRANSLATION ACCESS:          0  HIT:          0  MISS:          0
cpu0_L1I PREFETCH  REQUESTED:          0  ISSUED:          0  USEFUL:          0  USELESS:          0
cpu0_L1I AVERAGE MISS LATENCY: -nan cycles
cpu0_STLB TOTAL     ACCESS:     437565  HIT:     432135  MISS:       5430
cpu0_STLB LOAD      ACCESS:     280366  HIT:     275678  MISS:       4688
cpu0_STLB RFO       ACCESS:     157199  HIT:     156457  MISS:        742
cpu0_STLB PREFETCH  ACCESS:          0  HIT:          0  MISS:          0
cpu0_STLB WRITEBACK ACCESS:          0  HIT:          0  MISS:          0
cpu0_STLB TRANSLATION ACCESS:          0  HIT:          0  MISS:          0
cpu0_STLB PREFETCH  REQUESTED:          0  ISSUED:          0  USEFUL:          0  USELESS:          0
cpu0_STLB AVERAGE MISS LATENCY: 179.034 cycles
cpu0_L1D TOTAL     ACCESS:    6518163  HIT:    5275970  MISS:    1242193
cpu0_L1D LOAD      ACCESS:    5882984  HIT:    4757193  MISS:    1125791
cpu0_L1D RFO       ACCESS:     629775  HIT:     515325  MISS:     114450
cpu0_L1D PREFETCH  ACCESS:          0  HIT:          0  MISS:          0
cpu0_L1D WRITEBACK ACCESS:          0  HIT:          0  MISS:          0
cpu0_L1D TRANSLATION ACCESS:       5404  HIT:       3452  MISS:       1952
cpu0_L1D PREFETCH  REQUESTED:          0  ISSUED:          0  USEFUL:          0  USELESS:          0
cpu0_L1D AVERAGE MISS LATENCY: 109.768 cycles
cpu0_L2C TOTAL     ACCESS:    1889198  HIT:     855976  MISS:    1033222
cpu0_L2C LOAD      ACCESS:    1125784  HIT:     322889  MISS:     802895
cpu0_L2C RFO       ACCESS:     114442  HIT:      78849  MISS:      35593
cpu0_L2C PREFETCH  ACCESS:     298940  HIT:     106093  MISS:     192847
cpu0_L2C WRITEBACK ACCESS:     348080  HIT:     346685  MISS:       1395
cpu0_L2C TRANSLATION ACCESS:       1952  HIT:       1460  MISS:        492
cpu0_L2C PREFETCH  REQUESTED:     380596  ISSUED:     364602  USEFUL:     152869  USELESS:      58287
cpu0_L2C AVERAGE MISS LATENCY: 150.442 cycles
LLC TOTAL     ACCESS:    1267458  HIT:     642380  MISS:     625078
LLC LOAD      ACCESS:     784570  HIT:     380082  MISS:     404488
LLC RFO       ACCESS:      35593  HIT:       9971  MISS:      25622
LLC PREFETCH  ACCESS:     211753  HIT:      18830  MISS:     192923
LLC WRITEBACK ACCESS:     235050  HIT:     233235  MISS:       1815
LLC TRANSLATION ACCESS:        492  HIT:        262  MISS:        230
LLC PREFETCH  REQUESTED:          0  ISSUED:          0  USEFUL:          0  USELESS:          0
LLC AVERAGE MISS LATENCY: 222.288 cycles

DRAM Statistics
 CHANNEL 0
 RQ ROW_BUFFER_HIT:      68540  ROW_BUFFER_MISS:     554372
 DBUS AVG_CONGESTED_CYCLE:    3.94436
 WQ ROW_BUFFER_HIT:      34944  ROW_BUFFER_MISS:     169460  FULL:          0


CPU 0 Branch Prediction Accuracy: 91.1986% MPKI: 12.9566 Average ROB Occupancy at Mispredict: 52.289
Branch type MPKI
BRANCH_DIRECT_JUMP: 0
BRANCH_INDIRECT: 0
BRANCH_CONDITIONAL: 12.9566
BRANCH_DIRECT_CALL: 0
BRANCH_INDIRECT_CALL: 0
BRANCH_RETURN: 0

