
*** ChampSim Multicore Out-of-Order Simulator ***

Warmup Instructions: 25000000
Simulation Instructions: 25000000
Number of CPUs: 1
Off-chip DRAM Size: 4 GiB Channels: 1 Width: 64-bit Data Rate: 3200 MT/s

VirtualMemory physical capacity: 8588881920 num_ppages: 2096895
VirtualMemory page size: 4096 log2_page_size: 12

CPU 0 runs ../TRACES/sssp-3.trace.gz
CPU 0 Bimodal branch predictor
Basic BTB sets: 1024 ways: 8 indirect buffer size: 4096 RAS size: 64
Stream Plus Stride Prefetcher with degree = 4 and distance = 16
WARNING: The extended signature CACHE::prefetch_line(ip, base_addr, pf_addr, fill_this_level, prefetch_metadata) is deprecated.
WARNING: Use CACHE::prefetch_line(pf_addr, fill_this_level, prefetch_metadata) instead.
Heartbeat CPU 0 instructions: 10000002 cycles: 2980404 heartbeat IPC: 3.35525 cumulative IPC: 3.35525 (Simulation time: 0 hr 0 min 18 sec) 
Heartbeat CPU 0 instructions: 20000001 cycles: 6362348 heartbeat IPC: 2.95688 cumulative IPC: 3.14349 (Simulation time: 0 hr 0 min 38 sec) 

Warmup complete CPU 0 instructions: 25000004 cycles: 8126927 (Simulation time: 0 hr 0 min 49 sec) 

Heartbeat CPU 0 instructions: 30000002 cycles: 24416829 heartbeat IPC: 0.553879 cumulative IPC: 0.306938 (Simulation time: 0 hr 1 min 6 sec) 
Heartbeat CPU 0 instructions: 40000001 cycles: 57913283 heartbeat IPC: 0.298539 cumulative IPC: 0.301287 (Simulation time: 0 hr 1 min 43 sec) 
Heartbeat CPU 0 instructions: 50000002 cycles: 90371262 heartbeat IPC: 0.308091 cumulative IPC: 0.303972 (Simulation time: 0 hr 2 min 21 sec) 
Finished CPU 0 instructions: 25000000 cycles: 82244353 cumulative IPC: 0.303972 (Simulation time: 0 hr 2 min 21 sec) 

ChampSim completed all CPUs

Region of Interest Statistics

CPU 0 cumulative IPC: 0.303972 instructions: 25000000 cycles: 82244353
cpu0_DTLB TOTAL     ACCESS:    6310607  HIT:    5873027  MISS:     437580
cpu0_DTLB LOAD      ACCESS:    5885885  HIT:    5605639  MISS:     280246
cpu0_DTLB RFO       ACCESS:     424722  HIT:     267388  MISS:     157334
cpu0_DTLB PREFETCH  ACCESS:          0  HIT:          0  MISS:          0
cpu0_DTLB WRITEBACK ACCESS:          0  HIT:          0  MISS:          0
cpu0_DTLB TRANSLATION ACCESS:          0  HIT:          0  MISS:          0
cpu0_DTLB PREFETCH  REQUESTED:          0  ISSUED:          0  USEFUL:          0  USELESS:          0
cpu0_DTLB AVERAGE MISS LATENCY: 11.301 cycles
cpu0_ITLB TOTAL     ACCESS:    2383479  HIT:    2383479  MISS:          0
cpu0_ITLB LOAD      ACCESS:    2383479  HIT:    2383479  MISS:          0
cpu0_ITLB RFO       ACCESS:          0  HIT:          0  MISS:          0
cpu0_ITLB PREFETCH  ACCESS:          0  HIT:          0  MISS:          0
cpu0_ITLB WRITEBACK ACCESS:          0  HIT:          0  MISS:          0
cpu0_ITLB TRANSLATION ACCESS:          0  HIT:          0  MISS:          0
cpu0_ITLB PREFETCH  REQUESTED:          0  ISSUED:          0  USEFUL:          0  USELESS:          0
cpu0_ITLB AVERAGE MISS LATENCY: -nan cycles
cpu0_L1I TOTAL     ACCESS:      10713  HIT:      10713  MISS:          0
cpu0_L1I LOAD      ACCESS:      10713  HIT:      10713  MISS:          0
cpu0_L1I RFO       ACCESS:          0  HIT:          0  MISS:          0
cpu0_L1I PREFETCH  ACCESS:          0  HIT:          0  MISS:          0
cpu0_L1I WRITEBACK ACCESS:          0  HIT:          0  MISS:          0
cpu0_L1I TRANSLATION ACCESS:          0  HIT:          0  MISS:          0
cpu0_L1I PREFETCH  REQUESTED:          0  ISSUED:          0  USEFUL:          0  USELESS:          0
cpu0_L1I AVERAGE MISS LATENCY: -nan cycles
cpu0_STLB TOTAL     ACCESS:     437580  HIT:     432150  MISS:       5430
cpu0_STLB LOAD      ACCESS:     280246  HIT:     275559  MISS:       4687
cpu0_STLB RFO       ACCESS:     157334  HIT:     156591  MISS:        743
cpu0_STLB PREFETCH  ACCESS:          0  HIT:          0  MISS:          0
cpu0_STLB WRITEBACK ACCESS:          0  HIT:          0  MISS:          0
cpu0_STLB TRANSLATION ACCESS:          0  HIT:          0  MISS:          0
cpu0_STLB PREFETCH  REQUESTED:          0  ISSUED:          0  USEFUL:          0  USELESS:          0
cpu0_STLB AVERAGE MISS LATENCY: 177.716 cycles
cpu0_L1D TOTAL     ACCESS:    6326615  HIT:    5084429  MISS:    1242186
cpu0_L1D LOAD      ACCESS:    5691270  HIT:    4565481  MISS:    1125789
cpu0_L1D RFO       ACCESS:     629942  HIT:     515495  MISS:     114447
cpu0_L1D PREFETCH  ACCESS:          0  HIT:          0  MISS:          0
cpu0_L1D WRITEBACK ACCESS:          0  HIT:          0  MISS:          0
cpu0_L1D TRANSLATION ACCESS:       5403  HIT:       3453  MISS:       1950
cpu0_L1D PREFETCH  REQUESTED:          0  ISSUED:          0  USEFUL:          0  USELESS:          0
cpu0_L1D AVERAGE MISS LATENCY: 115.686 cycles
cpu0_L2C TOTAL     ACCESS:    1911652  HIT:     843784  MISS:    1067868
cpu0_L2C LOAD      ACCESS:    1125782  HIT:     262481  MISS:     863301
cpu0_L2C RFO       ACCESS:     114440  HIT:      78439  MISS:      36001
cpu0_L2C PREFETCH  ACCESS:     321404  HIT:     154805  MISS:     166599
cpu0_L2C WRITEBACK ACCESS:     348076  HIT:     346605  MISS:       1471
cpu0_L2C TRANSLATION ACCESS:       1950  HIT:       1454  MISS:        496
cpu0_L2C PREFETCH  REQUESTED:     348968  ISSUED:     342329  USEFUL:      98825  USELESS:      69362
cpu0_L2C AVERAGE MISS LATENCY: 157.632 cycles
LLC TOTAL     ACCESS:    1303219  HIT:     624714  MISS:     678505
LLC LOAD      ACCESS:     861718  HIT:     365092  MISS:     496626
LLC RFO       ACCESS:      36000  HIT:      10237  MISS:      25763
LLC PREFETCH  ACCESS:     169419  HIT:      15435  MISS:     153984
LLC WRITEBACK ACCESS:     235586  HIT:     233704  MISS:       1882
LLC TRANSLATION ACCESS:        496  HIT:        246  MISS:        250
LLC PREFETCH  REQUESTED:          0  ISSUED:          0  USEFUL:          0  USELESS:          0
LLC AVERAGE MISS LATENCY: 216.921 cycles

DRAM Statistics
 CHANNEL 0
 RQ ROW_BUFFER_HIT:     117035  ROW_BUFFER_MISS:     559338
 DBUS AVG_CONGESTED_CYCLE:    3.93011
 WQ ROW_BUFFER_HIT:      46998  ROW_BUFFER_MISS:     159288  FULL:          0


CPU 0 Branch Prediction Accuracy: 91.1986% MPKI: 12.9566 Average ROB Occupancy at Mispredict: 52.2769
Branch type MPKI
BRANCH_DIRECT_JUMP: 0
BRANCH_INDIRECT: 0
BRANCH_CONDITIONAL: 12.9566
BRANCH_DIRECT_CALL: 0
BRANCH_INDIRECT_CALL: 0
BRANCH_RETURN: 0

