
*** ChampSim Multicore Out-of-Order Simulator ***

Warmup Instructions: 25000000
Simulation Instructions: 25000000
Number of CPUs: 1
Off-chip DRAM Size: 4 GiB Channels: 1 Width: 64-bit Data Rate: 3200 MT/s

VirtualMemory physical capacity: 8588881920 num_ppages: 2096895
VirtualMemory page size: 4096 log2_page_size: 12

CPU 0 runs /home/abhishekjagushte/Labs/COA/ass2/traces/sssp-3.trace.gz
CPU 0 Bimodal branch predictor
Basic BTB sets: 1024 ways: 8 indirect buffer size: 4096 RAS size: 64
cpu0_L2C IP-based stride prefetcher
WARNING: The extended signature CACHE::prefetch_line(ip, base_addr, pf_addr, fill_this_level, prefetch_metadata) is deprecated.
WARNING: Use CACHE::prefetch_line(pf_addr, fill_this_level, prefetch_metadata) instead.
Heartbeat CPU 0 instructions: 10000002 cycles: 2980397 heartbeat IPC: 3.35526 cumulative IPC: 3.35526 (Simulation time: 0 hr 0 min 20 sec) 
Heartbeat CPU 0 instructions: 20000001 cycles: 6362335 heartbeat IPC: 2.95688 cumulative IPC: 3.1435 (Simulation time: 0 hr 0 min 43 sec) 

Warmup complete CPU 0 instructions: 25000004 cycles: 8126917 (Simulation time: 0 hr 0 min 54 sec) 

Heartbeat CPU 0 instructions: 30000002 cycles: 23220573 heartbeat IPC: 0.593182 cumulative IPC: 0.331265 (Simulation time: 0 hr 1 min 11 sec) 
Heartbeat CPU 0 instructions: 40000001 cycles: 54144820 heartbeat IPC: 0.323371 cumulative IPC: 0.32596 (Simulation time: 0 hr 1 min 46 sec) 
Heartbeat CPU 0 instructions: 50000002 cycles: 83709425 heartbeat IPC: 0.338242 cumulative IPC: 0.330764 (Simulation time: 0 hr 2 min 23 sec) 
Finished CPU 0 instructions: 25000000 cycles: 75582526 cumulative IPC: 0.330764 (Simulation time: 0 hr 2 min 23 sec) 

ChampSim completed all CPUs

Region of Interest Statistics

CPU 0 cumulative IPC: 0.330764 instructions: 25000000 cycles: 75582526
cpu0_DTLB TOTAL     ACCESS:    6304223  HIT:    5866657  MISS:     437566
cpu0_DTLB LOAD      ACCESS:    5879610  HIT:    5599242  MISS:     280368
cpu0_DTLB RFO       ACCESS:     424613  HIT:     267415  MISS:     157198
cpu0_DTLB PREFETCH  ACCESS:          0  HIT:          0  MISS:          0
cpu0_DTLB WRITEBACK ACCESS:          0  HIT:          0  MISS:          0
cpu0_DTLB TRANSLATION ACCESS:          0  HIT:          0  MISS:          0
cpu0_DTLB PREFETCH  REQUESTED:          0  ISSUED:          0  USEFUL:          0  USELESS:          0
cpu0_DTLB AVERAGE MISS LATENCY: 11.328 cycles
cpu0_ITLB TOTAL     ACCESS:    2383672  HIT:    2383672  MISS:          0
cpu0_ITLB LOAD      ACCESS:    2383672  HIT:    2383672  MISS:          0
cpu0_ITLB RFO       ACCESS:          0  HIT:          0  MISS:          0
cpu0_ITLB PREFETCH  ACCESS:          0  HIT:          0  MISS:          0
cpu0_ITLB WRITEBACK ACCESS:          0  HIT:          0  MISS:          0
cpu0_ITLB TRANSLATION ACCESS:          0  HIT:          0  MISS:          0
cpu0_ITLB PREFETCH  REQUESTED:          0  ISSUED:          0  USEFUL:          0  USELESS:          0
cpu0_ITLB AVERAGE MISS LATENCY: -nan cycles
cpu0_L1I TOTAL     ACCESS:      10708  HIT:      10708  MISS:          0
cpu0_L1I LOAD      ACCESS:      10708  HIT:      10708  MISS:          0
cpu0_L1I RFO       ACCESS:          0  HIT:          0  MISS:          0
cpu0_L1I PREFETCH  ACCESS:          0  HIT:          0  MISS:          0
cpu0_L1I WRITEBACK ACCESS:          0  HIT:          0  MISS:          0
cpu0_L1I TRANSLATION ACCESS:          0  HIT:          0  MISS:          0
cpu0_L1I PREFETCH  REQUESTED:          0  ISSUED:          0  USEFUL:          0  USELESS:          0
cpu0_L1I AVERAGE MISS LATENCY: -nan cycles
cpu0_STLB TOTAL     ACCESS:     437566  HIT:     432136  MISS:       5430
cpu0_STLB LOAD      ACCESS:     280368  HIT:     275680  MISS:       4688
cpu0_STLB RFO       ACCESS:     157198  HIT:     156456  MISS:        742
cpu0_STLB PREFETCH  ACCESS:          0  HIT:          0  MISS:          0
cpu0_STLB WRITEBACK ACCESS:          0  HIT:          0  MISS:          0
cpu0_STLB TRANSLATION ACCESS:          0  HIT:          0  MISS:          0
cpu0_STLB PREFETCH  REQUESTED:          0  ISSUED:          0  USEFUL:          0  USELESS:          0
cpu0_STLB AVERAGE MISS LATENCY: 178.701 cycles
cpu0_L1D TOTAL     ACCESS:    6523570  HIT:    5281382  MISS:    1242188
cpu0_L1D LOAD      ACCESS:    5888467  HIT:    4762673  MISS:    1125794
cpu0_L1D RFO       ACCESS:     629699  HIT:     515256  MISS:     114443
cpu0_L1D PREFETCH  ACCESS:          0  HIT:          0  MISS:          0
cpu0_L1D WRITEBACK ACCESS:          0  HIT:          0  MISS:          0
cpu0_L1D TRANSLATION ACCESS:       5404  HIT:       3453  MISS:       1951
cpu0_L1D PREFETCH  REQUESTED:          0  ISSUED:          0  USEFUL:          0  USELESS:          0
cpu0_L1D AVERAGE MISS LATENCY: 110.532 cycles
cpu0_L2C TOTAL     ACCESS:    2336031  HIT:    1233179  MISS:    1102852
cpu0_L2C LOAD      ACCESS:    1125784  HIT:     341829  MISS:     783955
cpu0_L2C RFO       ACCESS:     114437  HIT:      78108  MISS:      36329
cpu0_L2C PREFETCH  ACCESS:     745782  HIT:     465288  MISS:     280494
cpu0_L2C WRITEBACK ACCESS:     348077  HIT:     346504  MISS:       1573
cpu0_L2C TRANSLATION ACCESS:       1951  HIT:       1450  MISS:        501
cpu0_L2C PREFETCH  REQUESTED:     901772  ISSUED:     856935  USEFUL:     191354  USELESS:     110688
cpu0_L2C AVERAGE MISS LATENCY: 161.405 cycles
LLC TOTAL     ACCESS:    1340367  HIT:     647661  MISS:     692706
LLC LOAD      ACCESS:     762381  HIT:     365510  MISS:     396871
LLC RFO       ACCESS:      36329  HIT:      10547  MISS:      25782
LLC PREFETCH  ACCESS:     304951  HIT:      37108  MISS:     267843
LLC WRITEBACK ACCESS:     236205  HIT:     234232  MISS:       1973
LLC TRANSLATION ACCESS:        501  HIT:        264  MISS:        237
LLC PREFETCH  REQUESTED:          0  ISSUED:          0  USEFUL:          0  USELESS:          0
LLC AVERAGE MISS LATENCY: 237.013 cycles

DRAM Statistics
 CHANNEL 0
 RQ ROW_BUFFER_HIT:     108018  ROW_BUFFER_MISS:     582338
 DBUS AVG_CONGESTED_CYCLE:     3.9393
 WQ ROW_BUFFER_HIT:      34684  ROW_BUFFER_MISS:     172599  FULL:          0


CPU 0 Branch Prediction Accuracy: 91.1986% MPKI: 12.9566 Average ROB Occupancy at Mispredict: 52.298
Branch type MPKI
BRANCH_DIRECT_JUMP: 0
BRANCH_INDIRECT: 0
BRANCH_CONDITIONAL: 12.9566
BRANCH_DIRECT_CALL: 0
BRANCH_INDIRECT_CALL: 0
BRANCH_RETURN: 0

