
*** ChampSim Multicore Out-of-Order Simulator ***

Warmup Instructions: 25000000
Simulation Instructions: 25000000
Number of CPUs: 1
Off-chip DRAM Size: 4 GiB Channels: 1 Width: 64-bit Data Rate: 3200 MT/s

VirtualMemory physical capacity: 8588881920 num_ppages: 2096895
VirtualMemory page size: 4096 log2_page_size: 12

CPU 0 runs ../TRACES/sssp-3.trace.gz
CPU 0 Bimodal branch predictor
Basic BTB sets: 1024 ways: 8 indirect buffer size: 4096 RAS size: 64
Stream Plus Stride Prefetcher with degree = 4 and distance = 64
WARNING: The extended signature CACHE::prefetch_line(ip, base_addr, pf_addr, fill_this_level, prefetch_metadata) is deprecated.
WARNING: Use CACHE::prefetch_line(pf_addr, fill_this_level, prefetch_metadata) instead.
Heartbeat CPU 0 instructions: 10000002 cycles: 2980412 heartbeat IPC: 3.35524 cumulative IPC: 3.35524 (Simulation time: 0 hr 0 min 18 sec) 
Heartbeat CPU 0 instructions: 20000001 cycles: 6362362 heartbeat IPC: 2.95687 cumulative IPC: 3.14349 (Simulation time: 0 hr 0 min 38 sec) 

Warmup complete CPU 0 instructions: 25000004 cycles: 8126943 (Simulation time: 0 hr 0 min 49 sec) 

Heartbeat CPU 0 instructions: 30000002 cycles: 24054844 heartbeat IPC: 0.565212 cumulative IPC: 0.313914 (Simulation time: 0 hr 1 min 6 sec) 
Heartbeat CPU 0 instructions: 40000001 cycles: 56796320 heartbeat IPC: 0.305423 cumulative IPC: 0.308202 (Simulation time: 0 hr 1 min 41 sec) 
Heartbeat CPU 0 instructions: 50000002 cycles: 88395721 heartbeat IPC: 0.316462 cumulative IPC: 0.311454 (Simulation time: 0 hr 2 min 18 sec) 
Finished CPU 0 instructions: 25000000 cycles: 80268796 cumulative IPC: 0.311454 (Simulation time: 0 hr 2 min 18 sec) 

ChampSim completed all CPUs

Region of Interest Statistics

CPU 0 cumulative IPC: 0.311454 instructions: 25000000 cycles: 80268796
cpu0_DTLB TOTAL     ACCESS:    6307915  HIT:    5870341  MISS:     437574
cpu0_DTLB LOAD      ACCESS:    5883194  HIT:    5602906  MISS:     280288
cpu0_DTLB RFO       ACCESS:     424721  HIT:     267435  MISS:     157286
cpu0_DTLB PREFETCH  ACCESS:          0  HIT:          0  MISS:          0
cpu0_DTLB WRITEBACK ACCESS:          0  HIT:          0  MISS:          0
cpu0_DTLB TRANSLATION ACCESS:          0  HIT:          0  MISS:          0
cpu0_DTLB PREFETCH  REQUESTED:          0  ISSUED:          0  USEFUL:          0  USELESS:          0
cpu0_DTLB AVERAGE MISS LATENCY: 11.281 cycles
cpu0_ITLB TOTAL     ACCESS:    2383583  HIT:    2383583  MISS:          0
cpu0_ITLB LOAD      ACCESS:    2383583  HIT:    2383583  MISS:          0
cpu0_ITLB RFO       ACCESS:          0  HIT:          0  MISS:          0
cpu0_ITLB PREFETCH  ACCESS:          0  HIT:          0  MISS:          0
cpu0_ITLB WRITEBACK ACCESS:          0  HIT:          0  MISS:          0
cpu0_ITLB TRANSLATION ACCESS:          0  HIT:          0  MISS:          0
cpu0_ITLB PREFETCH  REQUESTED:          0  ISSUED:          0  USEFUL:          0  USELESS:          0
cpu0_ITLB AVERAGE MISS LATENCY: -nan cycles
cpu0_L1I TOTAL     ACCESS:      10709  HIT:      10709  MISS:          0
cpu0_L1I LOAD      ACCESS:      10709  HIT:      10709  MISS:          0
cpu0_L1I RFO       ACCESS:          0  HIT:          0  MISS:          0
cpu0_L1I PREFETCH  ACCESS:          0  HIT:          0  MISS:          0
cpu0_L1I WRITEBACK ACCESS:          0  HIT:          0  MISS:          0
cpu0_L1I TRANSLATION ACCESS:          0  HIT:          0  MISS:          0
cpu0_L1I PREFETCH  REQUESTED:          0  ISSUED:          0  USEFUL:          0  USELESS:          0
cpu0_L1I AVERAGE MISS LATENCY: -nan cycles
cpu0_STLB TOTAL     ACCESS:     437574  HIT:     432144  MISS:       5430
cpu0_STLB LOAD      ACCESS:     280288  HIT:     275602  MISS:       4686
cpu0_STLB RFO       ACCESS:     157286  HIT:     156542  MISS:        744
cpu0_STLB PREFETCH  ACCESS:          0  HIT:          0  MISS:          0
cpu0_STLB WRITEBACK ACCESS:          0  HIT:          0  MISS:          0
cpu0_STLB TRANSLATION ACCESS:          0  HIT:          0  MISS:          0
cpu0_STLB PREFETCH  REQUESTED:          0  ISSUED:          0  USEFUL:          0  USELESS:          0
cpu0_STLB AVERAGE MISS LATENCY: 175.853 cycles
cpu0_L1D TOTAL     ACCESS:    6419067  HIT:    5176877  MISS:    1242190
cpu0_L1D LOAD      ACCESS:    5783732  HIT:    4657941  MISS:    1125791
cpu0_L1D RFO       ACCESS:     629933  HIT:     515484  MISS:     114449
cpu0_L1D PREFETCH  ACCESS:          0  HIT:          0  MISS:          0
cpu0_L1D WRITEBACK ACCESS:          0  HIT:          0  MISS:          0
cpu0_L1D TRANSLATION ACCESS:       5402  HIT:       3452  MISS:       1950
cpu0_L1D PREFETCH  REQUESTED:          0  ISSUED:          0  USEFUL:          0  USELESS:          0
cpu0_L1D AVERAGE MISS LATENCY: 117.259 cycles
cpu0_L2C TOTAL     ACCESS:    1843058  HIT:     719164  MISS:    1123894
cpu0_L2C LOAD      ACCESS:    1125782  HIT:     290109  MISS:     835673
cpu0_L2C RFO       ACCESS:     114442  HIT:      77845  MISS:      36597
cpu0_L2C PREFETCH  ACCESS:     252802  HIT:       3286  MISS:     249516
cpu0_L2C WRITEBACK ACCESS:     348082  HIT:     346482  MISS:       1600
cpu0_L2C TRANSLATION ACCESS:       1950  HIT:       1442  MISS:        508
cpu0_L2C PREFETCH  REQUESTED:     262176  ISSUED:     260333  USEFUL:     108490  USELESS:     142230
cpu0_L2C AVERAGE MISS LATENCY: 171.715 cycles
LLC TOTAL     ACCESS:    1362415  HIT:     611932  MISS:     750483
LLC LOAD      ACCESS:     834495  HIT:     353158  MISS:     481337
LLC RFO       ACCESS:      36597  HIT:      10616  MISS:      25981
LLC PREFETCH  ACCESS:     254315  HIT:      13410  MISS:     240905
LLC WRITEBACK ACCESS:     236500  HIT:     234499  MISS:       2001
LLC TRANSLATION ACCESS:        508  HIT:        249  MISS:        259
LLC PREFETCH  REQUESTED:          0  ISSUED:          0  USEFUL:          0  USELESS:          0
LLC AVERAGE MISS LATENCY: 230.152 cycles

DRAM Statistics
 CHANNEL 0
 RQ ROW_BUFFER_HIT:     163778  ROW_BUFFER_MISS:     584439
 DBUS AVG_CONGESTED_CYCLE:     3.9346
 WQ ROW_BUFFER_HIT:      37680  ROW_BUFFER_MISS:     170474  FULL:          0


CPU 0 Branch Prediction Accuracy: 91.1986% MPKI: 12.9566 Average ROB Occupancy at Mispredict: 52.2788
Branch type MPKI
BRANCH_DIRECT_JUMP: 0
BRANCH_INDIRECT: 0
BRANCH_CONDITIONAL: 12.9566
BRANCH_DIRECT_CALL: 0
BRANCH_INDIRECT_CALL: 0
BRANCH_RETURN: 0

