*** ChampSim Multicore Out-of-Order Simulator ***

Warmup Instructions: 25000000
Simulation Instructions: 25000000
Number of CPUs: 1
Off-chip DRAM Size: 4 GiB Channels: 1 Width: 64-bit Data Rate: 3200 MT/s

VirtualMemory physical capacity: 8588881920 num_ppages: 2096895
VirtualMemory page size: 4096 log2_page_size: 12

CPU 0 runs ../TRACES/sssp-3.trace.gz
CPU 0 Bimodal branch predictor
Basic BTB sets: 1024 ways: 8 indirect buffer size: 4096 RAS size: 64
Stream Prefetcher with degree = 2 and distance = 4
WARNING: The extended signature CACHE::prefetch_line(ip, base_addr, pf_addr, fill_this_level, prefetch_metadata) is deprecated.
WARNING: Use CACHE::prefetch_line(pf_addr, fill_this_level, prefetch_metadata) instead.
Heartbeat CPU 0 instructions: 10000002 cycles: 2980430 heartbeat IPC: 3.35522 cumulative IPC: 3.35522 (Simulation time: 0 hr 0 min 18 sec) 
Heartbeat CPU 0 instructions: 20000001 cycles: 6362376 heartbeat IPC: 2.95688 cumulative IPC: 3.14348 (Simulation time: 0 hr 0 min 40 sec) 

Warmup complete CPU 0 instructions: 25000004 cycles: 8126955 (Simulation time: 0 hr 0 min 51 sec) 

Heartbeat CPU 0 instructions: 30000002 cycles: 24131833 heartbeat IPC: 0.562763 cumulative IPC: 0.312405 (Simulation time: 0 hr 1 min 8 sec) 
Heartbeat CPU 0 instructions: 40000001 cycles: 56765658 heartbeat IPC: 0.30643 cumulative IPC: 0.308396 (Simulation time: 0 hr 1 min 44 sec) 
Heartbeat CPU 0 instructions: 50000002 cycles: 88484829 heartbeat IPC: 0.315267 cumulative IPC: 0.311108 (Simulation time: 0 hr 2 min 22 sec) 
Finished CPU 0 instructions: 25000000 cycles: 80357892 cumulative IPC: 0.311108 (Simulation time: 0 hr 2 min 22 sec) 

ChampSim completed all CPUs

Region of Interest Statistics

CPU 0 cumulative IPC: 0.311108 instructions: 25000000 cycles: 80357892
cpu0_DTLB TOTAL     ACCESS:    6310362  HIT:    5872785  MISS:     437577
cpu0_DTLB LOAD      ACCESS:    5885721  HIT:    5605466  MISS:     280255
cpu0_DTLB RFO       ACCESS:     424641  HIT:     267319  MISS:     157322
cpu0_DTLB PREFETCH  ACCESS:          0  HIT:          0  MISS:          0
cpu0_DTLB WRITEBACK ACCESS:          0  HIT:          0  MISS:          0
cpu0_DTLB TRANSLATION ACCESS:          0  HIT:          0  MISS:          0
cpu0_DTLB PREFETCH  REQUESTED:          0  ISSUED:          0  USEFUL:          0  USELESS:          0
cpu0_DTLB AVERAGE MISS LATENCY: 11.3005 cycles
cpu0_ITLB TOTAL     ACCESS:    2383522  HIT:    2383522  MISS:          0
cpu0_ITLB LOAD      ACCESS:    2383522  HIT:    2383522  MISS:          0
cpu0_ITLB RFO       ACCESS:          0  HIT:          0  MISS:          0
cpu0_ITLB PREFETCH  ACCESS:          0  HIT:          0  MISS:          0
cpu0_ITLB WRITEBACK ACCESS:          0  HIT:          0  MISS:          0
cpu0_ITLB TRANSLATION ACCESS:          0  HIT:          0  MISS:          0
cpu0_ITLB PREFETCH  REQUESTED:          0  ISSUED:          0  USEFUL:          0  USELESS:          0
cpu0_ITLB AVERAGE MISS LATENCY: -nan cycles
cpu0_L1I TOTAL     ACCESS:      10710  HIT:      10710  MISS:          0
cpu0_L1I LOAD      ACCESS:      10710  HIT:      10710  MISS:          0
cpu0_L1I RFO       ACCESS:          0  HIT:          0  MISS:          0
cpu0_L1I PREFETCH  ACCESS:          0  HIT:          0  MISS:          0
cpu0_L1I WRITEBACK ACCESS:          0  HIT:          0  MISS:          0
cpu0_L1I TRANSLATION ACCESS:          0  HIT:          0  MISS:          0
cpu0_L1I PREFETCH  REQUESTED:          0  ISSUED:          0  USEFUL:          0  USELESS:          0
cpu0_L1I AVERAGE MISS LATENCY: -nan cycles
cpu0_STLB TOTAL     ACCESS:     437577  HIT:     432147  MISS:       5430
cpu0_STLB LOAD      ACCESS:     280255  HIT:     275569  MISS:       4686
cpu0_STLB RFO       ACCESS:     157322  HIT:     156578  MISS:        744
cpu0_STLB PREFETCH  ACCESS:          0  HIT:          0  MISS:          0
cpu0_STLB WRITEBACK ACCESS:          0  HIT:          0  MISS:          0
cpu0_STLB TRANSLATION ACCESS:          0  HIT:          0  MISS:          0
cpu0_STLB PREFETCH  REQUESTED:          0  ISSUED:          0  USEFUL:          0  USELESS:          0
cpu0_STLB AVERAGE MISS LATENCY: 177.39 cycles
cpu0_L1D TOTAL     ACCESS:    6346527  HIT:    5104341  MISS:    1242186
cpu0_L1D LOAD      ACCESS:    5711211  HIT:    4585425  MISS:    1125786
cpu0_L1D RFO       ACCESS:     629914  HIT:     515465  MISS:     114449
cpu0_L1D PREFETCH  ACCESS:          0  HIT:          0  MISS:          0
cpu0_L1D WRITEBACK ACCESS:          0  HIT:          0  MISS:          0
cpu0_L1D TRANSLATION ACCESS:       5402  HIT:       3451  MISS:       1951
cpu0_L1D PREFETCH  REQUESTED:          0  ISSUED:          0  USEFUL:          0  USELESS:          0
cpu0_L1D AVERAGE MISS LATENCY: 111.901 cycles
cpu0_L2C TOTAL     ACCESS:    1743323  HIT:     695178  MISS:    1048145
cpu0_L2C LOAD      ACCESS:    1125778  HIT:     265421  MISS:     860357
cpu0_L2C RFO       ACCESS:     114443  HIT:      78664  MISS:      35779
cpu0_L2C PREFETCH  ACCESS:     153076  HIT:       2984  MISS:     150092
cpu0_L2C WRITEBACK ACCESS:     348075  HIT:     346649  MISS:       1426
cpu0_L2C TRANSLATION ACCESS:       1951  HIT:       1460  MISS:        491
cpu0_L2C PREFETCH  REQUESTED:     173133  ISSUED:     170784  USEFUL:      79125  USELESS:      75388
cpu0_L2C AVERAGE MISS LATENCY: 145.986 cycles
LLC TOTAL     ACCESS:    1282535  HIT:     642577  MISS:     639958
LLC LOAD      ACCESS:     855942  HIT:     376405  MISS:     479537
LLC RFO       ACCESS:      35779  HIT:      10120  MISS:      25659
LLC PREFETCH  ACCESS:     154954  HIT:      22284  MISS:     132670
LLC WRITEBACK ACCESS:     235369  HIT:     233514  MISS:       1855
LLC TRANSLATION ACCESS:        491  HIT:        254  MISS:        237
LLC PREFETCH  REQUESTED:          0  ISSUED:          0  USEFUL:          0  USELESS:          0
LLC AVERAGE MISS LATENCY: 206.626 cycles

DRAM Statistics
 CHANNEL 0
 RQ ROW_BUFFER_HIT:      72070  ROW_BUFFER_MISS:     565772
 DBUS AVG_CONGESTED_CYCLE:     3.9319
 WQ ROW_BUFFER_HIT:      51377  ROW_BUFFER_MISS:     153879  FULL:          0


CPU 0 Branch Prediction Accuracy: 91.1986% MPKI: 12.9566 Average ROB Occupancy at Mispredict: 52.2739
Branch type MPKI
BRANCH_DIRECT_JUMP: 0
BRANCH_INDIRECT: 0
BRANCH_CONDITIONAL: 12.9566
BRANCH_DIRECT_CALL: 0
BRANCH_INDIRECT_CALL: 0
BRANCH_RETURN: 0
